CM Curtain Antenna with Aperiodic Screen Reflector ([206] Centre-fed at 19.0 MHz - Aperiodic Screen Reflector) -- AHRS-4-2-0.5
CM - - - created by 'The I.T.S. S.A.G. ver 0.80' on Mon Sep 23 09:37:25 2013
CM  - Wires 101-199 = Array Elements
CM  - Wires 201-399 = Horizontal Screen Elements
CM  - Wires 401-499 = Vertical Screen Elements
CM  - Wires 801-899 = 'Legs' for Vertical Screen Elements
CE
GW 101 9 0.0 0.0 7.886974 0.0 7.886974 7.886974 0.004
GW 102 9 0.0 11.830461 7.886974 0.0 19.717434 7.886974 0.004
GW 103 9 0.0 23.660921 7.886974 0.0 31.547895 7.886974 0.004
GW 104 9 0.0 35.491382 7.886974 0.0 43.378355 7.886974 0.004
GW 105 9 0.0 0.0 15.773947 0.0 7.886974 15.773947 0.004
GW 106 9 0.0 11.830461 15.773947 0.0 19.717434 15.773947 0.004
GW 107 9 0.0 23.660921 15.773947 0.0 31.547895 15.773947 0.004
GW 108 9 0.0 35.491382 15.773947 0.0 43.378355 15.773947 0.004
GW 201 38 -3.94 -7.887 1.5774 -3.94 51.2548 1.5774 0.004
GW 202 38 -3.94 -7.887 1.971749 -3.94 51.2548 1.971749 0.004
GW 203 38 -3.94 -7.887 2.366097 -3.94 51.2548 2.366097 0.004
GW 204 38 -3.94 -7.887 2.760446 -3.94 51.2548 2.760446 0.004
GW 205 38 -3.94 -7.887 3.154795 -3.94 51.2548 3.154795 0.004
GW 206 38 -3.94 -7.887 3.549143 -3.94 51.2548 3.549143 0.004
GW 207 38 -3.94 -7.887 3.943492 -3.94 51.2548 3.943492 0.004
GW 208 38 -3.94 -7.887 4.337841 -3.94 51.2548 4.337841 0.004
GW 209 38 -3.94 -7.887 4.732189 -3.94 51.2548 4.732189 0.004
GW 210 38 -3.94 -7.887 5.126538 -3.94 51.2548 5.126538 0.004
GW 211 38 -3.94 -7.887 5.520887 -3.94 51.2548 5.520887 0.004
GW 212 38 -3.94 -7.887 5.915236 -3.94 51.2548 5.915236 0.004
GW 213 38 -3.94 -7.887 6.309584 -3.94 51.2548 6.309584 0.004
GW 214 38 -3.94 -7.887 6.703933 -3.94 51.2548 6.703933 0.004
GW 215 38 -3.94 -7.887 7.098282 -3.94 51.2548 7.098282 0.004
GW 216 38 -3.94 -7.887 7.49263 -3.94 51.2548 7.49263 0.004
GW 217 38 -3.94 -7.887 7.886979 -3.94 51.2548 7.886979 0.004
GW 218 38 -3.94 -7.887 8.281328 -3.94 51.2548 8.281328 0.004
GW 219 38 -3.94 -7.887 8.675676 -3.94 51.2548 8.675676 0.004
GW 220 38 -3.94 -7.887 9.070025 -3.94 51.2548 9.070025 0.004
GW 221 38 -3.94 -7.887 9.464374 -3.94 51.2548 9.464374 0.004
GW 222 38 -3.94 -7.887 9.858722 -3.94 51.2548 9.858722 0.004
GW 223 38 -3.94 -7.887 10.253071 -3.94 51.2548 10.253071 0.004
GW 224 38 -3.94 -7.887 10.64742 -3.94 51.2548 10.64742 0.004
GW 225 38 -3.94 -7.887 11.041768 -3.94 51.2548 11.041768 0.004
GW 226 38 -3.94 -7.887 11.436117 -3.94 51.2548 11.436117 0.004
GW 227 38 -3.94 -7.887 11.830466 -3.94 51.2548 11.830466 0.004
GW 228 38 -3.94 -7.887 12.224814 -3.94 51.2548 12.224814 0.004
GW 229 38 -3.94 -7.887 12.619163 -3.94 51.2548 12.619163 0.004
GW 230 38 -3.94 -7.887 13.013512 -3.94 51.2548 13.013512 0.004
GW 231 38 -3.94 -7.887 13.407861 -3.94 51.2548 13.407861 0.004
GW 232 38 -3.94 -7.887 13.802209 -3.94 51.2548 13.802209 0.004
GW 233 38 -3.94 -7.887 14.196558 -3.94 51.2548 14.196558 0.004
GW 234 38 -3.94 -7.887 14.590907 -3.94 51.2548 14.590907 0.004
GW 235 38 -3.94 -7.887 14.985255 -3.94 51.2548 14.985255 0.004
GW 236 38 -3.94 -7.887 15.379604 -3.94 51.2548 15.379604 0.004
GW 237 38 -3.94 -7.887 15.773953 -3.94 51.2548 15.773953 0.004
GW 238 38 -3.94 -7.887 16.168301 -3.94 51.2548 16.168301 0.004
GW 239 38 -3.94 -7.887 16.56265 -3.94 51.2548 16.56265 0.004
GW 240 38 -3.94 -7.887 16.956999 -3.94 51.2548 16.956999 0.004
GW 241 38 -3.94 -7.887 17.351347 -3.94 51.2548 17.351347 0.004
GW 242 38 -3.94 -7.887 17.745696 -3.94 51.2548 17.745696 0.004
GW 243 38 -3.94 -7.887 18.140045 -3.94 51.2548 18.140045 0.004
GW 244 38 -3.94 -7.887 18.534393 -3.94 51.2548 18.534393 0.004
GW 245 38 -3.94 -7.887 18.928742 -3.94 51.2548 18.928742 0.004
GW 246 38 -3.94 -7.887 19.323091 -3.94 51.2548 19.323091 0.004
GW 247 38 -3.94 -7.887 19.717439 -3.94 51.2548 19.717439 0.004
GW 248 38 -3.94 -7.887 20.111788 -3.94 51.2548 20.111788 0.004
GW 249 38 -3.94 -7.887 20.506137 -3.94 51.2548 20.506137 0.004
GW 250 38 -3.94 -7.887 20.900486 -3.94 51.2548 20.900486 0.004
GW 251 38 -3.94 -7.887 21.294834 -3.94 51.2548 21.294834 0.004
GW 252 38 -3.94 -7.887 21.689183 -3.94 51.2548 21.689183 0.004
GW 253 38 -3.94 -7.887 22.083532 -3.94 51.2548 22.083532 0.004
GW 254 38 -3.94 -7.887 22.47788 -3.94 51.2548 22.47788 0.004
GW 255 38 -3.94 -7.887 22.872229 -3.94 51.2548 22.872229 0.004
GW 256 38 -3.94 -7.887 23.266578 -3.94 51.2548 23.266578 0.004
GW 257 38 -3.94 -7.887 23.660926 -3.94 51.2548 23.660926 0.004
GW 258 38 -3.94 -7.887 24.055275 -3.94 51.2548 24.055275 0.004
GW 259 38 -3.94 -7.887 24.449624 -3.94 51.2548 24.449624 0.004
GW 260 38 -3.94 -7.887 24.843972 -3.94 51.2548 24.843972 0.004
GW 261 38 -3.94 -7.887 25.238321 -3.94 51.2548 25.238321 0.004
GW 401 60 -3.94 -7.887 25.238321 -3.94 -7.887 1.5774 0.004
GW 801 1 -3.94 -7.887 1.5774 -3.94 -7.887 0 0.004
GW 402 60 -3.94 21.6839 25.238321 -3.94 21.6839 1.5774 0.004
GW 802 1 -3.94 21.6839 1.5774 -3.94 21.6839 0 0.004
GW 403 60 -3.94 51.2548 25.238321 -3.94 51.2548 1.5774 0.004
GW 803 1 -3.94 51.2548 1.5774 -3.94 51.2548 0 0.004
GE 1
EK
TL 101 5 102 5 -50 9
TL 101 5 103 5 -50 9
TL 101 5 104 5 -50 9
TL 101 5 105 5 -50 9
TL 101 5 106 5 -50 9
TL 101 5 107 5 -50 9
TL 101 5 108 5 -50 9
LD 5 0 0 0 3.8E7 0
EX 0 101 5 0 1 0
GN 2 0 0 0 13 0.005
FR 0 1 0 0 19.0 0
RP 0 91 360 1001 0. 0. 1. 1.
