CM Curtain Antenna with Aperiodic Screen Reflector ([201] Centre-fed at 4.0 MHz - Aperiodic Screen Reflector) -- AHRS-4-1-0.5
CM - - - created by 'The I.T.S. S.A.G. ver 0.80' on Mon Sep 23 09:37:25 2013
CM  - Wires 101-199 = Array Elements
CM  - Wires 201-399 = Horizontal Screen Elements
CM  - Wires 401-499 = Vertical Screen Elements
CM  - Wires 801-899 = 'Legs' for Vertical Screen Elements
CE
GW 101 9 0.0 0.0 37.463125 0.0 37.463125 37.463125 0.004
GW 102 9 0.0 56.194688 37.463125 0.0 93.657812 37.463125 0.004
GW 103 9 0.0 112.389375 37.463125 0.0 149.8525 37.463125 0.004
GW 104 9 0.0 168.584063 37.463125 0.0 206.047188 37.463125 0.004
GW 201 38 -18.73 -37.4631 7.4926 -18.73 243.5057 7.4926 0.004
GW 202 38 -18.73 -37.4631 9.365756 -18.73 243.5057 9.365756 0.004
GW 203 38 -18.73 -37.4631 11.238913 -18.73 243.5057 11.238913 0.004
GW 204 38 -18.73 -37.4631 13.112069 -18.73 243.5057 13.112069 0.004
GW 205 38 -18.73 -37.4631 14.985225 -18.73 243.5057 14.985225 0.004
GW 206 38 -18.73 -37.4631 16.858381 -18.73 243.5057 16.858381 0.004
GW 207 38 -18.73 -37.4631 18.731538 -18.73 243.5057 18.731538 0.004
GW 208 38 -18.73 -37.4631 20.604694 -18.73 243.5057 20.604694 0.004
GW 209 38 -18.73 -37.4631 22.47785 -18.73 243.5057 22.47785 0.004
GW 210 38 -18.73 -37.4631 24.351006 -18.73 243.5057 24.351006 0.004
GW 211 38 -18.73 -37.4631 26.224163 -18.73 243.5057 26.224163 0.004
GW 212 38 -18.73 -37.4631 28.097319 -18.73 243.5057 28.097319 0.004
GW 213 38 -18.73 -37.4631 29.970475 -18.73 243.5057 29.970475 0.004
GW 214 38 -18.73 -37.4631 31.843631 -18.73 243.5057 31.843631 0.004
GW 215 38 -18.73 -37.4631 33.716788 -18.73 243.5057 33.716788 0.004
GW 216 38 -18.73 -37.4631 35.589944 -18.73 243.5057 35.589944 0.004
GW 217 38 -18.73 -37.4631 37.4631 -18.73 243.5057 37.4631 0.004
GW 218 38 -18.73 -37.4631 39.336256 -18.73 243.5057 39.336256 0.004
GW 219 38 -18.73 -37.4631 41.209413 -18.73 243.5057 41.209413 0.004
GW 220 38 -18.73 -37.4631 43.082569 -18.73 243.5057 43.082569 0.004
GW 221 38 -18.73 -37.4631 44.955725 -18.73 243.5057 44.955725 0.004
GW 222 38 -18.73 -37.4631 46.828881 -18.73 243.5057 46.828881 0.004
GW 223 38 -18.73 -37.4631 48.702038 -18.73 243.5057 48.702038 0.004
GW 224 38 -18.73 -37.4631 50.575194 -18.73 243.5057 50.575194 0.004
GW 225 38 -18.73 -37.4631 52.44835 -18.73 243.5057 52.44835 0.004
GW 226 38 -18.73 -37.4631 54.321506 -18.73 243.5057 54.321506 0.004
GW 227 38 -18.73 -37.4631 56.194663 -18.73 243.5057 56.194663 0.004
GW 228 38 -18.73 -37.4631 58.067819 -18.73 243.5057 58.067819 0.004
GW 229 38 -18.73 -37.4631 59.940975 -18.73 243.5057 59.940975 0.004
GW 230 38 -18.73 -37.4631 61.814131 -18.73 243.5057 61.814131 0.004
GW 231 38 -18.73 -37.4631 63.687288 -18.73 243.5057 63.687288 0.004
GW 232 38 -18.73 -37.4631 65.560444 -18.73 243.5057 65.560444 0.004
GW 233 38 -18.73 -37.4631 67.4336 -18.73 243.5057 67.4336 0.004
GW 234 38 -18.73 -37.4631 69.306756 -18.73 243.5057 69.306756 0.004
GW 235 38 -18.73 -37.4631 71.179913 -18.73 243.5057 71.179913 0.004
GW 236 38 -18.73 -37.4631 73.053069 -18.73 243.5057 73.053069 0.004
GW 237 38 -18.73 -37.4631 74.926225 -18.73 243.5057 74.926225 0.004
GW 238 38 -18.73 -37.4631 76.799381 -18.73 243.5057 76.799381 0.004
GW 239 38 -18.73 -37.4631 78.672538 -18.73 243.5057 78.672538 0.004
GW 240 38 -18.73 -37.4631 80.545694 -18.73 243.5057 80.545694 0.004
GW 401 39 -18.73 -37.4631 80.545694 -18.73 -37.4631 7.4926 0.004
GW 801 1 -18.73 -37.4631 7.4926 -18.73 -37.4631 0 0.004
GW 402 39 -18.73 103.0213 80.545694 -18.73 103.0213 7.4926 0.004
GW 802 1 -18.73 103.0213 7.4926 -18.73 103.0213 0 0.004
GW 403 39 -18.73 243.5057 80.545694 -18.73 243.5057 7.4926 0.004
GW 803 1 -18.73 243.5057 7.4926 -18.73 243.5057 0 0.004
GE 1
EK
TL 101 5 102 5 -50 9
TL 101 5 103 5 -50 9
TL 101 5 104 5 -50 9
LD 5 0 0 0 3.8E7 0
EX 0 101 5 0 1 0
GN 2 0 0 0 13 0.005
FR 0 1 0 0 4.0 0
RP 0 91 360 1001 0. 0. 1. 1.
