CM Curtain Antenna with Aperiodic Screen Reflector ([208] Centre-fed at 15.0 MHz - Aperiodic Screen Reflector) -- AHRS-4-2-1.0
CM - - - created by 'The I.T.S. S.A.G. ver 0.80' on Mon Sep 23 09:37:25 2013
CM  - Wires 101-199 = Array Elements
CM  - Wires 201-399 = Horizontal Screen Elements
CM  - Wires 401-499 = Vertical Screen Elements
CM  - Wires 801-899 = 'Legs' for Vertical Screen Elements
CE
GW 101 9 0.0 0.0 19.980333 0.0 9.990167 19.980333 0.004
GW 102 9 0.0 14.98525 19.980333 0.0 24.975417 19.980333 0.004
GW 103 9 0.0 29.9705 19.980333 0.0 39.960667 19.980333 0.004
GW 104 9 0.0 44.95575 19.980333 0.0 54.945917 19.980333 0.004
GW 105 9 0.0 0.0 29.9705 0.0 9.990167 29.9705 0.004
GW 106 9 0.0 14.98525 29.9705 0.0 24.975417 29.9705 0.004
GW 107 9 0.0 29.9705 29.9705 0.0 39.960667 29.9705 0.004
GW 108 9 0.0 44.95575 29.9705 0.0 54.945917 29.9705 0.004
GW 201 38 -5.0 -9.9902 9.9902 -5.0 64.9508 9.9902 0.004
GW 202 38 -5.0 -9.9902 10.489708 -5.0 64.9508 10.489708 0.004
GW 203 38 -5.0 -9.9902 10.989217 -5.0 64.9508 10.989217 0.004
GW 204 38 -5.0 -9.9902 11.488725 -5.0 64.9508 11.488725 0.004
GW 205 38 -5.0 -9.9902 11.988233 -5.0 64.9508 11.988233 0.004
GW 206 38 -5.0 -9.9902 12.487742 -5.0 64.9508 12.487742 0.004
GW 207 38 -5.0 -9.9902 12.98725 -5.0 64.9508 12.98725 0.004
GW 208 38 -5.0 -9.9902 13.486758 -5.0 64.9508 13.486758 0.004
GW 209 38 -5.0 -9.9902 13.986267 -5.0 64.9508 13.986267 0.004
GW 210 38 -5.0 -9.9902 14.485775 -5.0 64.9508 14.485775 0.004
GW 211 38 -5.0 -9.9902 14.985283 -5.0 64.9508 14.985283 0.004
GW 212 38 -5.0 -9.9902 15.484792 -5.0 64.9508 15.484792 0.004
GW 213 38 -5.0 -9.9902 15.9843 -5.0 64.9508 15.9843 0.004
GW 214 38 -5.0 -9.9902 16.483808 -5.0 64.9508 16.483808 0.004
GW 215 38 -5.0 -9.9902 16.983317 -5.0 64.9508 16.983317 0.004
GW 216 38 -5.0 -9.9902 17.482825 -5.0 64.9508 17.482825 0.004
GW 217 38 -5.0 -9.9902 17.982333 -5.0 64.9508 17.982333 0.004
GW 218 38 -5.0 -9.9902 18.481842 -5.0 64.9508 18.481842 0.004
GW 219 38 -5.0 -9.9902 18.98135 -5.0 64.9508 18.98135 0.004
GW 220 38 -5.0 -9.9902 19.480858 -5.0 64.9508 19.480858 0.004
GW 221 38 -5.0 -9.9902 19.980367 -5.0 64.9508 19.980367 0.004
GW 222 38 -5.0 -9.9902 20.479875 -5.0 64.9508 20.479875 0.004
GW 223 38 -5.0 -9.9902 20.979383 -5.0 64.9508 20.979383 0.004
GW 224 38 -5.0 -9.9902 21.478892 -5.0 64.9508 21.478892 0.004
GW 225 38 -5.0 -9.9902 21.9784 -5.0 64.9508 21.9784 0.004
GW 226 38 -5.0 -9.9902 22.477908 -5.0 64.9508 22.477908 0.004
GW 227 38 -5.0 -9.9902 22.977417 -5.0 64.9508 22.977417 0.004
GW 228 38 -5.0 -9.9902 23.476925 -5.0 64.9508 23.476925 0.004
GW 229 38 -5.0 -9.9902 23.976433 -5.0 64.9508 23.976433 0.004
GW 230 38 -5.0 -9.9902 24.475942 -5.0 64.9508 24.475942 0.004
GW 231 38 -5.0 -9.9902 24.97545 -5.0 64.9508 24.97545 0.004
GW 232 38 -5.0 -9.9902 25.474958 -5.0 64.9508 25.474958 0.004
GW 233 38 -5.0 -9.9902 25.974467 -5.0 64.9508 25.974467 0.004
GW 234 38 -5.0 -9.9902 26.473975 -5.0 64.9508 26.473975 0.004
GW 235 38 -5.0 -9.9902 26.973483 -5.0 64.9508 26.973483 0.004
GW 236 38 -5.0 -9.9902 27.472992 -5.0 64.9508 27.472992 0.004
GW 237 38 -5.0 -9.9902 27.9725 -5.0 64.9508 27.9725 0.004
GW 238 38 -5.0 -9.9902 28.472008 -5.0 64.9508 28.472008 0.004
GW 239 38 -5.0 -9.9902 28.971517 -5.0 64.9508 28.971517 0.004
GW 240 38 -5.0 -9.9902 29.471025 -5.0 64.9508 29.471025 0.004
GW 241 38 -5.0 -9.9902 29.970533 -5.0 64.9508 29.970533 0.004
GW 242 38 -5.0 -9.9902 30.470042 -5.0 64.9508 30.470042 0.004
GW 243 38 -5.0 -9.9902 30.96955 -5.0 64.9508 30.96955 0.004
GW 244 38 -5.0 -9.9902 31.469058 -5.0 64.9508 31.469058 0.004
GW 245 38 -5.0 -9.9902 31.968567 -5.0 64.9508 31.968567 0.004
GW 246 38 -5.0 -9.9902 32.468075 -5.0 64.9508 32.468075 0.004
GW 247 38 -5.0 -9.9902 32.967583 -5.0 64.9508 32.967583 0.004
GW 248 38 -5.0 -9.9902 33.467092 -5.0 64.9508 33.467092 0.004
GW 249 38 -5.0 -9.9902 33.9666 -5.0 64.9508 33.9666 0.004
GW 250 38 -5.0 -9.9902 34.466108 -5.0 64.9508 34.466108 0.004
GW 251 38 -5.0 -9.9902 34.965617 -5.0 64.9508 34.965617 0.004
GW 252 38 -5.0 -9.9902 35.465125 -5.0 64.9508 35.465125 0.004
GW 253 38 -5.0 -9.9902 35.964633 -5.0 64.9508 35.964633 0.004
GW 254 38 -5.0 -9.9902 36.464142 -5.0 64.9508 36.464142 0.004
GW 255 38 -5.0 -9.9902 36.96365 -5.0 64.9508 36.96365 0.004
GW 256 38 -5.0 -9.9902 37.463158 -5.0 64.9508 37.463158 0.004
GW 257 38 -5.0 -9.9902 37.962667 -5.0 64.9508 37.962667 0.004
GW 258 38 -5.0 -9.9902 38.462175 -5.0 64.9508 38.462175 0.004
GW 259 38 -5.0 -9.9902 38.961683 -5.0 64.9508 38.961683 0.004
GW 260 38 -5.0 -9.9902 39.461192 -5.0 64.9508 39.461192 0.004
GW 401 59 -5.0 -9.9902 39.461192 -5.0 -9.9902 9.9902 0.004
GW 801 8 -5.0 -9.9902 9.9902 -5.0 -9.9902 0 0.004
GW 402 59 -5.0 27.4803 39.461192 -5.0 27.4803 9.9902 0.004
GW 802 8 -5.0 27.4803 9.9902 -5.0 27.4803 0 0.004
GW 403 59 -5.0 64.9508 39.461192 -5.0 64.9508 9.9902 0.004
GW 803 8 -5.0 64.9508 9.9902 -5.0 64.9508 0 0.004
GE 1
EK
TL 101 5 102 5 -50 9
TL 101 5 103 5 -50 9
TL 101 5 104 5 -50 9
TL 101 5 105 5 -50 9
TL 101 5 106 5 -50 9
TL 101 5 107 5 -50 9
TL 101 5 108 5 -50 9
LD 5 0 0 0 3.8E7 0
EX 0 101 5 0 1 0
GN 2 0 0 0 13 0.005
FR 0 1 0 0 15.0 0
RP 0 91 360 1001 0. 0. 1. 1.
