CM Curtain Antenna with Aperiodic Screen Reflector ([158] Centre-fed at 24.0 MHz - Aperiodic Screen Reflector) -- AHRS-2-4-1.0
CM - - - created by 'The I.T.S. S.A.G. ver 0.80' on Mon Sep 23 09:37:25 2013
CM  - Wires 101-199 = Array Elements
CM  - Wires 201-399 = Horizontal Screen Elements
CM  - Wires 401-499 = Vertical Screen Elements
CM  - Wires 801-899 = 'Legs' for Vertical Screen Elements
CE
GW 101 9 0.0 0.0 12.487708 0.0 6.243854 12.487708 0.004
GW 102 9 0.0 9.365781 12.487708 0.0 15.609635 12.487708 0.004
GW 103 9 0.0 0.0 18.731562 0.0 6.243854 18.731562 0.004
GW 104 9 0.0 9.365781 18.731562 0.0 15.609635 18.731562 0.004
GW 105 9 0.0 0.0 24.975417 0.0 6.243854 24.975417 0.004
GW 106 9 0.0 9.365781 24.975417 0.0 15.609635 24.975417 0.004
GW 107 9 0.0 0.0 31.219271 0.0 6.243854 31.219271 0.004
GW 108 9 0.0 9.365781 31.219271 0.0 15.609635 31.219271 0.004
GW 201 24 -3.12 -6.2439 6.2439 -3.12 21.8515 6.2439 0.004
GW 202 24 -3.12 -6.2439 6.556093 -3.12 21.8515 6.556093 0.004
GW 203 24 -3.12 -6.2439 6.868285 -3.12 21.8515 6.868285 0.004
GW 204 24 -3.12 -6.2439 7.180478 -3.12 21.8515 7.180478 0.004
GW 205 24 -3.12 -6.2439 7.492671 -3.12 21.8515 7.492671 0.004
GW 206 24 -3.12 -6.2439 7.804864 -3.12 21.8515 7.804864 0.004
GW 207 24 -3.12 -6.2439 8.117056 -3.12 21.8515 8.117056 0.004
GW 208 24 -3.12 -6.2439 8.429249 -3.12 21.8515 8.429249 0.004
GW 209 24 -3.12 -6.2439 8.741442 -3.12 21.8515 8.741442 0.004
GW 210 24 -3.12 -6.2439 9.053634 -3.12 21.8515 9.053634 0.004
GW 211 24 -3.12 -6.2439 9.365827 -3.12 21.8515 9.365827 0.004
GW 212 24 -3.12 -6.2439 9.67802 -3.12 21.8515 9.67802 0.004
GW 213 24 -3.12 -6.2439 9.990213 -3.12 21.8515 9.990213 0.004
GW 214 24 -3.12 -6.2439 10.302405 -3.12 21.8515 10.302405 0.004
GW 215 24 -3.12 -6.2439 10.614598 -3.12 21.8515 10.614598 0.004
GW 216 24 -3.12 -6.2439 10.926791 -3.12 21.8515 10.926791 0.004
GW 217 24 -3.12 -6.2439 11.238983 -3.12 21.8515 11.238983 0.004
GW 218 24 -3.12 -6.2439 11.551176 -3.12 21.8515 11.551176 0.004
GW 219 24 -3.12 -6.2439 11.863369 -3.12 21.8515 11.863369 0.004
GW 220 24 -3.12 -6.2439 12.175561 -3.12 21.8515 12.175561 0.004
GW 221 24 -3.12 -6.2439 12.487754 -3.12 21.8515 12.487754 0.004
GW 222 24 -3.12 -6.2439 12.799947 -3.12 21.8515 12.799947 0.004
GW 223 24 -3.12 -6.2439 13.11214 -3.12 21.8515 13.11214 0.004
GW 224 24 -3.12 -6.2439 13.424332 -3.12 21.8515 13.424332 0.004
GW 225 24 -3.12 -6.2439 13.736525 -3.12 21.8515 13.736525 0.004
GW 226 24 -3.12 -6.2439 14.048718 -3.12 21.8515 14.048718 0.004
GW 227 24 -3.12 -6.2439 14.36091 -3.12 21.8515 14.36091 0.004
GW 228 24 -3.12 -6.2439 14.673103 -3.12 21.8515 14.673103 0.004
GW 229 24 -3.12 -6.2439 14.985296 -3.12 21.8515 14.985296 0.004
GW 230 24 -3.12 -6.2439 15.297489 -3.12 21.8515 15.297489 0.004
GW 231 24 -3.12 -6.2439 15.609681 -3.12 21.8515 15.609681 0.004
GW 232 24 -3.12 -6.2439 15.921874 -3.12 21.8515 15.921874 0.004
GW 233 24 -3.12 -6.2439 16.234067 -3.12 21.8515 16.234067 0.004
GW 234 24 -3.12 -6.2439 16.546259 -3.12 21.8515 16.546259 0.004
GW 235 24 -3.12 -6.2439 16.858452 -3.12 21.8515 16.858452 0.004
GW 236 24 -3.12 -6.2439 17.170645 -3.12 21.8515 17.170645 0.004
GW 237 24 -3.12 -6.2439 17.482838 -3.12 21.8515 17.482838 0.004
GW 238 24 -3.12 -6.2439 17.79503 -3.12 21.8515 17.79503 0.004
GW 239 24 -3.12 -6.2439 18.107223 -3.12 21.8515 18.107223 0.004
GW 240 24 -3.12 -6.2439 18.419416 -3.12 21.8515 18.419416 0.004
GW 241 24 -3.12 -6.2439 18.731608 -3.12 21.8515 18.731608 0.004
GW 242 24 -3.12 -6.2439 19.043801 -3.12 21.8515 19.043801 0.004
GW 243 24 -3.12 -6.2439 19.355994 -3.12 21.8515 19.355994 0.004
GW 244 24 -3.12 -6.2439 19.668186 -3.12 21.8515 19.668186 0.004
GW 245 24 -3.12 -6.2439 19.980379 -3.12 21.8515 19.980379 0.004
GW 246 24 -3.12 -6.2439 20.292572 -3.12 21.8515 20.292572 0.004
GW 247 24 -3.12 -6.2439 20.604765 -3.12 21.8515 20.604765 0.004
GW 248 24 -3.12 -6.2439 20.916957 -3.12 21.8515 20.916957 0.004
GW 249 24 -3.12 -6.2439 21.22915 -3.12 21.8515 21.22915 0.004
GW 250 24 -3.12 -6.2439 21.541343 -3.12 21.8515 21.541343 0.004
GW 251 24 -3.12 -6.2439 21.853535 -3.12 21.8515 21.853535 0.004
GW 252 24 -3.12 -6.2439 22.165728 -3.12 21.8515 22.165728 0.004
GW 253 24 -3.12 -6.2439 22.477921 -3.12 21.8515 22.477921 0.004
GW 254 24 -3.12 -6.2439 22.790114 -3.12 21.8515 22.790114 0.004
GW 255 24 -3.12 -6.2439 23.102306 -3.12 21.8515 23.102306 0.004
GW 256 24 -3.12 -6.2439 23.414499 -3.12 21.8515 23.414499 0.004
GW 257 24 -3.12 -6.2439 23.726692 -3.12 21.8515 23.726692 0.004
GW 258 24 -3.12 -6.2439 24.038884 -3.12 21.8515 24.038884 0.004
GW 259 24 -3.12 -6.2439 24.351077 -3.12 21.8515 24.351077 0.004
GW 260 24 -3.12 -6.2439 24.66327 -3.12 21.8515 24.66327 0.004
GW 261 24 -3.12 -6.2439 24.975463 -3.12 21.8515 24.975463 0.004
GW 262 24 -3.12 -6.2439 25.287655 -3.12 21.8515 25.287655 0.004
GW 263 24 -3.12 -6.2439 25.599848 -3.12 21.8515 25.599848 0.004
GW 264 24 -3.12 -6.2439 25.912041 -3.12 21.8515 25.912041 0.004
GW 265 24 -3.12 -6.2439 26.224233 -3.12 21.8515 26.224233 0.004
GW 266 24 -3.12 -6.2439 26.536426 -3.12 21.8515 26.536426 0.004
GW 267 24 -3.12 -6.2439 26.848619 -3.12 21.8515 26.848619 0.004
GW 268 24 -3.12 -6.2439 27.160811 -3.12 21.8515 27.160811 0.004
GW 269 24 -3.12 -6.2439 27.473004 -3.12 21.8515 27.473004 0.004
GW 270 24 -3.12 -6.2439 27.785197 -3.12 21.8515 27.785197 0.004
GW 271 24 -3.12 -6.2439 28.09739 -3.12 21.8515 28.09739 0.004
GW 272 24 -3.12 -6.2439 28.409582 -3.12 21.8515 28.409582 0.004
GW 273 24 -3.12 -6.2439 28.721775 -3.12 21.8515 28.721775 0.004
GW 274 24 -3.12 -6.2439 29.033968 -3.12 21.8515 29.033968 0.004
GW 275 24 -3.12 -6.2439 29.34616 -3.12 21.8515 29.34616 0.004
GW 276 24 -3.12 -6.2439 29.658353 -3.12 21.8515 29.658353 0.004
GW 277 24 -3.12 -6.2439 29.970546 -3.12 21.8515 29.970546 0.004
GW 278 24 -3.12 -6.2439 30.282739 -3.12 21.8515 30.282739 0.004
GW 279 24 -3.12 -6.2439 30.594931 -3.12 21.8515 30.594931 0.004
GW 280 24 -3.12 -6.2439 30.907124 -3.12 21.8515 30.907124 0.004
GW 281 24 -3.12 -6.2439 31.219317 -3.12 21.8515 31.219317 0.004
GW 282 24 -3.12 -6.2439 31.531509 -3.12 21.8515 31.531509 0.004
GW 283 24 -3.12 -6.2439 31.843702 -3.12 21.8515 31.843702 0.004
GW 284 24 -3.12 -6.2439 32.155895 -3.12 21.8515 32.155895 0.004
GW 285 24 -3.12 -6.2439 32.468087 -3.12 21.8515 32.468087 0.004
GW 286 24 -3.12 -6.2439 32.78028 -3.12 21.8515 32.78028 0.004
GW 287 24 -3.12 -6.2439 33.092473 -3.12 21.8515 33.092473 0.004
GW 288 24 -3.12 -6.2439 33.404666 -3.12 21.8515 33.404666 0.004
GW 289 24 -3.12 -6.2439 33.716858 -3.12 21.8515 33.716858 0.004
GW 290 24 -3.12 -6.2439 34.029051 -3.12 21.8515 34.029051 0.004
GW 291 24 -3.12 -6.2439 34.341244 -3.12 21.8515 34.341244 0.004
GW 292 24 -3.12 -6.2439 34.653436 -3.12 21.8515 34.653436 0.004
GW 293 24 -3.12 -6.2439 34.965629 -3.12 21.8515 34.965629 0.004
GW 294 24 -3.12 -6.2439 35.277822 -3.12 21.8515 35.277822 0.004
GW 295 24 -3.12 -6.2439 35.590015 -3.12 21.8515 35.590015 0.004
GW 296 24 -3.12 -6.2439 35.902207 -3.12 21.8515 35.902207 0.004
GW 297 24 -3.12 -6.2439 36.2144 -3.12 21.8515 36.2144 0.004
GW 298 24 -3.12 -6.2439 36.526593 -3.12 21.8515 36.526593 0.004
GW 299 24 -3.12 -6.2439 36.838785 -3.12 21.8515 36.838785 0.004
GW 300 24 -3.12 -6.2439 37.150978 -3.12 21.8515 37.150978 0.004
GW 401 99 -3.12 -6.2439 37.150978 -3.12 -6.2439 6.2439 0.004
GW 801 8 -3.12 -6.2439 6.2439 -3.12 -6.2439 0 0.004
GW 402 99 -3.12 7.8038 37.150978 -3.12 7.8038 6.2439 0.004
GW 802 8 -3.12 7.8038 6.2439 -3.12 7.8038 0 0.004
GW 403 99 -3.12 21.8515 37.150978 -3.12 21.8515 6.2439 0.004
GW 803 8 -3.12 21.8515 6.2439 -3.12 21.8515 0 0.004
GE 1
EK
TL 101 5 102 5 -50 9
TL 101 5 103 5 -50 9
TL 101 5 104 5 -50 9
TL 101 5 105 5 -50 9
TL 101 5 106 5 -50 9
TL 101 5 107 5 -50 9
TL 101 5 108 5 -50 9
LD 5 0 0 0 3.8E7 0
EX 0 101 5 0 1 0
GN 2 0 0 0 13 0.005
FR 0 1 0 0 24.0 0
RP 0 91 360 1001 0. 0. 1. 1.
