CM Curtain Antenna with Aperiodic Screen Reflector ([226] Centre-fed at 11.0 MHz - Aperiodic Screen Reflector) -- AHRS-4-6-0.5
CM - - - created by 'The I.T.S. S.A.G. ver 0.80' on Mon Sep 23 09:37:25 2013
CM  - Wires 101-199 = Array Elements
CM  - Wires 201-399 = Horizontal Screen Elements
CM  - Wires 401-499 = Vertical Screen Elements
CM  - Wires 801-899 = 'Legs' for Vertical Screen Elements
CE
GW 101 9 0.0 0.0 13.622955 0.0 13.622955 13.622955 0.004
GW 102 9 0.0 20.434432 13.622955 0.0 34.057386 13.622955 0.004
GW 103 9 0.0 40.868864 13.622955 0.0 54.491818 13.622955 0.004
GW 104 9 0.0 61.303295 13.622955 0.0 74.92625 13.622955 0.004
GW 105 9 0.0 0.0 27.245909 0.0 13.622955 27.245909 0.004
GW 106 9 0.0 20.434432 27.245909 0.0 34.057386 27.245909 0.004
GW 107 9 0.0 40.868864 27.245909 0.0 54.491818 27.245909 0.004
GW 108 9 0.0 61.303295 27.245909 0.0 74.92625 27.245909 0.004
GW 109 9 0.0 0.0 40.868864 0.0 13.622955 40.868864 0.004
GW 110 9 0.0 20.434432 40.868864 0.0 34.057386 40.868864 0.004
GW 111 9 0.0 40.868864 40.868864 0.0 54.491818 40.868864 0.004
GW 112 9 0.0 61.303295 40.868864 0.0 74.92625 40.868864 0.004
GW 113 9 0.0 0.0 54.491818 0.0 13.622955 54.491818 0.004
GW 114 9 0.0 20.434432 54.491818 0.0 34.057386 54.491818 0.004
GW 115 9 0.0 40.868864 54.491818 0.0 54.491818 54.491818 0.004
GW 116 9 0.0 61.303295 54.491818 0.0 74.92625 54.491818 0.004
GW 117 9 0.0 0.0 68.114773 0.0 13.622955 68.114773 0.004
GW 118 9 0.0 20.434432 68.114773 0.0 34.057386 68.114773 0.004
GW 119 9 0.0 40.868864 68.114773 0.0 54.491818 68.114773 0.004
GW 120 9 0.0 61.303295 68.114773 0.0 74.92625 68.114773 0.004
GW 121 9 0.0 0.0 81.737727 0.0 13.622955 81.737727 0.004
GW 122 9 0.0 20.434432 81.737727 0.0 34.057386 81.737727 0.004
GW 123 9 0.0 40.868864 81.737727 0.0 54.491818 81.737727 0.004
GW 124 9 0.0 61.303295 81.737727 0.0 74.92625 81.737727 0.004
GW 201 38 -6.81 -13.623 2.7246 -6.81 88.5447 2.7246 0.004
GW 202 38 -6.81 -13.623 3.405748 -6.81 88.5447 3.405748 0.004
GW 203 38 -6.81 -13.623 4.086895 -6.81 88.5447 4.086895 0.004
GW 204 38 -6.81 -13.623 4.768043 -6.81 88.5447 4.768043 0.004
GW 205 38 -6.81 -13.623 5.449191 -6.81 88.5447 5.449191 0.004
GW 206 38 -6.81 -13.623 6.130339 -6.81 88.5447 6.130339 0.004
GW 207 38 -6.81 -13.623 6.811486 -6.81 88.5447 6.811486 0.004
GW 208 38 -6.81 -13.623 7.492634 -6.81 88.5447 7.492634 0.004
GW 209 38 -6.81 -13.623 8.173782 -6.81 88.5447 8.173782 0.004
GW 210 38 -6.81 -13.623 8.85493 -6.81 88.5447 8.85493 0.004
GW 211 38 -6.81 -13.623 9.536077 -6.81 88.5447 9.536077 0.004
GW 212 38 -6.81 -13.623 10.217225 -6.81 88.5447 10.217225 0.004
GW 213 38 -6.81 -13.623 10.898373 -6.81 88.5447 10.898373 0.004
GW 214 38 -6.81 -13.623 11.57952 -6.81 88.5447 11.57952 0.004
GW 215 38 -6.81 -13.623 12.260668 -6.81 88.5447 12.260668 0.004
GW 216 38 -6.81 -13.623 12.941816 -6.81 88.5447 12.941816 0.004
GW 217 38 -6.81 -13.623 13.622964 -6.81 88.5447 13.622964 0.004
GW 218 38 -6.81 -13.623 14.304111 -6.81 88.5447 14.304111 0.004
GW 219 38 -6.81 -13.623 14.985259 -6.81 88.5447 14.985259 0.004
GW 220 38 -6.81 -13.623 15.666407 -6.81 88.5447 15.666407 0.004
GW 221 38 -6.81 -13.623 16.347555 -6.81 88.5447 16.347555 0.004
GW 222 38 -6.81 -13.623 17.028702 -6.81 88.5447 17.028702 0.004
GW 223 38 -6.81 -13.623 17.70985 -6.81 88.5447 17.70985 0.004
GW 224 38 -6.81 -13.623 18.390998 -6.81 88.5447 18.390998 0.004
GW 225 38 -6.81 -13.623 19.072145 -6.81 88.5447 19.072145 0.004
GW 226 38 -6.81 -13.623 19.753293 -6.81 88.5447 19.753293 0.004
GW 227 38 -6.81 -13.623 20.434441 -6.81 88.5447 20.434441 0.004
GW 228 38 -6.81 -13.623 21.115589 -6.81 88.5447 21.115589 0.004
GW 229 38 -6.81 -13.623 21.796736 -6.81 88.5447 21.796736 0.004
GW 230 38 -6.81 -13.623 22.477884 -6.81 88.5447 22.477884 0.004
GW 231 38 -6.81 -13.623 23.159032 -6.81 88.5447 23.159032 0.004
GW 232 38 -6.81 -13.623 23.84018 -6.81 88.5447 23.84018 0.004
GW 233 38 -6.81 -13.623 24.521327 -6.81 88.5447 24.521327 0.004
GW 234 38 -6.81 -13.623 25.202475 -6.81 88.5447 25.202475 0.004
GW 235 38 -6.81 -13.623 25.883623 -6.81 88.5447 25.883623 0.004
GW 236 38 -6.81 -13.623 26.56477 -6.81 88.5447 26.56477 0.004
GW 237 38 -6.81 -13.623 27.245918 -6.81 88.5447 27.245918 0.004
GW 238 38 -6.81 -13.623 27.927066 -6.81 88.5447 27.927066 0.004
GW 239 38 -6.81 -13.623 28.608214 -6.81 88.5447 28.608214 0.004
GW 240 38 -6.81 -13.623 29.289361 -6.81 88.5447 29.289361 0.004
GW 241 38 -6.81 -13.623 29.970509 -6.81 88.5447 29.970509 0.004
GW 242 38 -6.81 -13.623 30.651657 -6.81 88.5447 30.651657 0.004
GW 243 38 -6.81 -13.623 31.332805 -6.81 88.5447 31.332805 0.004
GW 244 38 -6.81 -13.623 32.013952 -6.81 88.5447 32.013952 0.004
GW 245 38 -6.81 -13.623 32.6951 -6.81 88.5447 32.6951 0.004
GW 246 38 -6.81 -13.623 33.376248 -6.81 88.5447 33.376248 0.004
GW 247 38 -6.81 -13.623 34.057395 -6.81 88.5447 34.057395 0.004
GW 248 38 -6.81 -13.623 34.738543 -6.81 88.5447 34.738543 0.004
GW 249 38 -6.81 -13.623 35.419691 -6.81 88.5447 35.419691 0.004
GW 250 38 -6.81 -13.623 36.100839 -6.81 88.5447 36.100839 0.004
GW 251 38 -6.81 -13.623 36.781986 -6.81 88.5447 36.781986 0.004
GW 252 38 -6.81 -13.623 37.463134 -6.81 88.5447 37.463134 0.004
GW 253 38 -6.81 -13.623 38.144282 -6.81 88.5447 38.144282 0.004
GW 254 38 -6.81 -13.623 38.82543 -6.81 88.5447 38.82543 0.004
GW 255 38 -6.81 -13.623 39.506577 -6.81 88.5447 39.506577 0.004
GW 256 38 -6.81 -13.623 40.187725 -6.81 88.5447 40.187725 0.004
GW 257 38 -6.81 -13.623 40.868873 -6.81 88.5447 40.868873 0.004
GW 258 38 -6.81 -13.623 41.55002 -6.81 88.5447 41.55002 0.004
GW 259 38 -6.81 -13.623 42.231168 -6.81 88.5447 42.231168 0.004
GW 260 38 -6.81 -13.623 42.912316 -6.81 88.5447 42.912316 0.004
GW 261 38 -6.81 -13.623 43.593464 -6.81 88.5447 43.593464 0.004
GW 262 38 -6.81 -13.623 44.274611 -6.81 88.5447 44.274611 0.004
GW 263 38 -6.81 -13.623 44.955759 -6.81 88.5447 44.955759 0.004
GW 264 38 -6.81 -13.623 45.636907 -6.81 88.5447 45.636907 0.004
GW 265 38 -6.81 -13.623 46.318055 -6.81 88.5447 46.318055 0.004
GW 266 38 -6.81 -13.623 46.999202 -6.81 88.5447 46.999202 0.004
GW 267 38 -6.81 -13.623 47.68035 -6.81 88.5447 47.68035 0.004
GW 268 38 -6.81 -13.623 48.361498 -6.81 88.5447 48.361498 0.004
GW 269 38 -6.81 -13.623 49.042645 -6.81 88.5447 49.042645 0.004
GW 270 38 -6.81 -13.623 49.723793 -6.81 88.5447 49.723793 0.004
GW 271 38 -6.81 -13.623 50.404941 -6.81 88.5447 50.404941 0.004
GW 272 38 -6.81 -13.623 51.086089 -6.81 88.5447 51.086089 0.004
GW 273 38 -6.81 -13.623 51.767236 -6.81 88.5447 51.767236 0.004
GW 274 38 -6.81 -13.623 52.448384 -6.81 88.5447 52.448384 0.004
GW 275 38 -6.81 -13.623 53.129532 -6.81 88.5447 53.129532 0.004
GW 276 38 -6.81 -13.623 53.81068 -6.81 88.5447 53.81068 0.004
GW 277 38 -6.81 -13.623 54.491827 -6.81 88.5447 54.491827 0.004
GW 278 38 -6.81 -13.623 55.172975 -6.81 88.5447 55.172975 0.004
GW 279 38 -6.81 -13.623 55.854123 -6.81 88.5447 55.854123 0.004
GW 280 38 -6.81 -13.623 56.53527 -6.81 88.5447 56.53527 0.004
GW 281 38 -6.81 -13.623 57.216418 -6.81 88.5447 57.216418 0.004
GW 282 38 -6.81 -13.623 57.897566 -6.81 88.5447 57.897566 0.004
GW 283 38 -6.81 -13.623 58.578714 -6.81 88.5447 58.578714 0.004
GW 284 38 -6.81 -13.623 59.259861 -6.81 88.5447 59.259861 0.004
GW 285 38 -6.81 -13.623 59.941009 -6.81 88.5447 59.941009 0.004
GW 286 38 -6.81 -13.623 60.622157 -6.81 88.5447 60.622157 0.004
GW 287 38 -6.81 -13.623 61.303305 -6.81 88.5447 61.303305 0.004
GW 288 38 -6.81 -13.623 61.984452 -6.81 88.5447 61.984452 0.004
GW 289 38 -6.81 -13.623 62.6656 -6.81 88.5447 62.6656 0.004
GW 290 38 -6.81 -13.623 63.346748 -6.81 88.5447 63.346748 0.004
GW 291 38 -6.81 -13.623 64.027895 -6.81 88.5447 64.027895 0.004
GW 292 38 -6.81 -13.623 64.709043 -6.81 88.5447 64.709043 0.004
GW 293 38 -6.81 -13.623 65.390191 -6.81 88.5447 65.390191 0.004
GW 294 38 -6.81 -13.623 66.071339 -6.81 88.5447 66.071339 0.004
GW 295 38 -6.81 -13.623 66.752486 -6.81 88.5447 66.752486 0.004
GW 296 38 -6.81 -13.623 67.433634 -6.81 88.5447 67.433634 0.004
GW 297 38 -6.81 -13.623 68.114782 -6.81 88.5447 68.114782 0.004
GW 298 38 -6.81 -13.623 68.79593 -6.81 88.5447 68.79593 0.004
GW 299 38 -6.81 -13.623 69.477077 -6.81 88.5447 69.477077 0.004
GW 300 38 -6.81 -13.623 70.158225 -6.81 88.5447 70.158225 0.004
GW 301 38 -6.81 -13.623 70.839373 -6.81 88.5447 70.839373 0.004
GW 302 38 -6.81 -13.623 71.52052 -6.81 88.5447 71.52052 0.004
GW 303 38 -6.81 -13.623 72.201668 -6.81 88.5447 72.201668 0.004
GW 304 38 -6.81 -13.623 72.882816 -6.81 88.5447 72.882816 0.004
GW 305 38 -6.81 -13.623 73.563964 -6.81 88.5447 73.563964 0.004
GW 306 38 -6.81 -13.623 74.245111 -6.81 88.5447 74.245111 0.004
GW 307 38 -6.81 -13.623 74.926259 -6.81 88.5447 74.926259 0.004
GW 308 38 -6.81 -13.623 75.607407 -6.81 88.5447 75.607407 0.004
GW 309 38 -6.81 -13.623 76.288555 -6.81 88.5447 76.288555 0.004
GW 310 38 -6.81 -13.623 76.969702 -6.81 88.5447 76.969702 0.004
GW 311 38 -6.81 -13.623 77.65085 -6.81 88.5447 77.65085 0.004
GW 312 38 -6.81 -13.623 78.331998 -6.81 88.5447 78.331998 0.004
GW 313 38 -6.81 -13.623 79.013145 -6.81 88.5447 79.013145 0.004
GW 314 38 -6.81 -13.623 79.694293 -6.81 88.5447 79.694293 0.004
GW 315 38 -6.81 -13.623 80.375441 -6.81 88.5447 80.375441 0.004
GW 316 38 -6.81 -13.623 81.056589 -6.81 88.5447 81.056589 0.004
GW 317 38 -6.81 -13.623 81.737736 -6.81 88.5447 81.737736 0.004
GW 318 38 -6.81 -13.623 82.418884 -6.81 88.5447 82.418884 0.004
GW 319 38 -6.81 -13.623 83.100032 -6.81 88.5447 83.100032 0.004
GW 320 38 -6.81 -13.623 83.78118 -6.81 88.5447 83.78118 0.004
GW 321 38 -6.81 -13.623 84.462327 -6.81 88.5447 84.462327 0.004
GW 322 38 -6.81 -13.623 85.143475 -6.81 88.5447 85.143475 0.004
GW 323 38 -6.81 -13.623 85.824623 -6.81 88.5447 85.824623 0.004
GW 324 38 -6.81 -13.623 86.50577 -6.81 88.5447 86.50577 0.004
GW 325 38 -6.81 -13.623 87.186918 -6.81 88.5447 87.186918 0.004
GW 326 38 -6.81 -13.623 87.868066 -6.81 88.5447 87.868066 0.004
GW 327 38 -6.81 -13.623 88.549214 -6.81 88.5447 88.549214 0.004
GW 328 38 -6.81 -13.623 89.230361 -6.81 88.5447 89.230361 0.004
GW 329 38 -6.81 -13.623 89.911509 -6.81 88.5447 89.911509 0.004
GW 330 38 -6.81 -13.623 90.592657 -6.81 88.5447 90.592657 0.004
GW 331 38 -6.81 -13.623 91.273805 -6.81 88.5447 91.273805 0.004
GW 332 38 -6.81 -13.623 91.954952 -6.81 88.5447 91.954952 0.004
GW 333 38 -6.81 -13.623 92.6361 -6.81 88.5447 92.6361 0.004
GW 334 38 -6.81 -13.623 93.317248 -6.81 88.5447 93.317248 0.004
GW 335 38 -6.81 -13.623 93.998395 -6.81 88.5447 93.998395 0.004
GW 336 38 -6.81 -13.623 94.679543 -6.81 88.5447 94.679543 0.004
GW 337 38 -6.81 -13.623 95.360691 -6.81 88.5447 95.360691 0.004
GW 338 38 -6.81 -13.623 96.041839 -6.81 88.5447 96.041839 0.004
GW 339 38 -6.81 -13.623 96.722986 -6.81 88.5447 96.722986 0.004
GW 340 38 -6.81 -13.623 97.404134 -6.81 88.5447 97.404134 0.004
GW 401 139 -6.81 -13.623 97.404134 -6.81 -13.623 2.7246 0.004
GW 801 1 -6.81 -13.623 2.7246 -6.81 -13.623 0 0.004
GW 402 139 -6.81 37.46085 97.404134 -6.81 37.46085 2.7246 0.004
GW 802 1 -6.81 37.46085 2.7246 -6.81 37.46085 0 0.004
GW 403 139 -6.81 88.5447 97.404134 -6.81 88.5447 2.7246 0.004
GW 803 1 -6.81 88.5447 2.7246 -6.81 88.5447 0 0.004
GE 1
EK
TL 101 5 102 5 -50 15
TL 101 5 103 5 -50 15
TL 101 5 104 5 -50 15
TL 101 5 105 5 -50 15
TL 101 5 106 5 -50 15
TL 101 5 107 5 -50 15
TL 101 5 108 5 -50 15
TL 101 5 109 5 -50 15
TL 101 5 110 5 -50 15
TL 101 5 111 5 -50 15
TL 101 5 112 5 -50 15
TL 101 5 113 5 -50 15
TL 101 5 114 5 -50 15
TL 101 5 115 5 -50 15
TL 101 5 116 5 -50 15
TL 101 5 117 5 -50 15
TL 101 5 118 5 -50 15
TL 101 5 119 5 -50 15
TL 101 5 120 5 -50 15
TL 101 5 121 5 -50 15
TL 101 5 122 5 -50 15
TL 101 5 123 5 -50 15
TL 101 5 124 5 -50 15
LD 5 0 0 0 3.8E7 0
EX 0 101 5 0 1 0
GN 2 0 0 0 13 0.005
FR 0 1 0 0 11.0 0
RP 0 91 360 1001 0. 0. 1. 1.
