CM Curtain Antenna with Aperiodic Screen Reflector ([208] Centre-fed at 10.0 MHz - Aperiodic Screen Reflector) -- AHRS-4-2-1.0
CM - - - created by 'The I.T.S. S.A.G. ver 0.80' on Mon Sep 23 09:37:25 2013
CM  - Wires 101-199 = Array Elements
CM  - Wires 201-399 = Horizontal Screen Elements
CM  - Wires 401-499 = Vertical Screen Elements
CM  - Wires 801-899 = 'Legs' for Vertical Screen Elements
CE
GW 101 9 0.0 0.0 29.9705 0.0 14.98525 29.9705 0.004
GW 102 9 0.0 22.477875 29.9705 0.0 37.463125 29.9705 0.004
GW 103 9 0.0 44.95575 29.9705 0.0 59.941 29.9705 0.004
GW 104 9 0.0 67.433625 29.9705 0.0 82.418875 29.9705 0.004
GW 105 9 0.0 0.0 44.95575 0.0 14.98525 44.95575 0.004
GW 106 9 0.0 22.477875 44.95575 0.0 37.463125 44.95575 0.004
GW 107 9 0.0 44.95575 44.95575 0.0 59.941 44.95575 0.004
GW 108 9 0.0 67.433625 44.95575 0.0 82.418875 44.95575 0.004
GW 201 38 -7.49 -14.9852 14.9852 -7.49 97.3963 14.9852 0.004
GW 202 38 -7.49 -14.9852 15.734463 -7.49 97.3963 15.734463 0.004
GW 203 38 -7.49 -14.9852 16.483725 -7.49 97.3963 16.483725 0.004
GW 204 38 -7.49 -14.9852 17.232988 -7.49 97.3963 17.232988 0.004
GW 205 38 -7.49 -14.9852 17.98225 -7.49 97.3963 17.98225 0.004
GW 206 38 -7.49 -14.9852 18.731513 -7.49 97.3963 18.731513 0.004
GW 207 38 -7.49 -14.9852 19.480775 -7.49 97.3963 19.480775 0.004
GW 208 38 -7.49 -14.9852 20.230038 -7.49 97.3963 20.230038 0.004
GW 209 38 -7.49 -14.9852 20.9793 -7.49 97.3963 20.9793 0.004
GW 210 38 -7.49 -14.9852 21.728563 -7.49 97.3963 21.728563 0.004
GW 211 38 -7.49 -14.9852 22.477825 -7.49 97.3963 22.477825 0.004
GW 212 38 -7.49 -14.9852 23.227087 -7.49 97.3963 23.227087 0.004
GW 213 38 -7.49 -14.9852 23.97635 -7.49 97.3963 23.97635 0.004
GW 214 38 -7.49 -14.9852 24.725613 -7.49 97.3963 24.725613 0.004
GW 215 38 -7.49 -14.9852 25.474875 -7.49 97.3963 25.474875 0.004
GW 216 38 -7.49 -14.9852 26.224137 -7.49 97.3963 26.224137 0.004
GW 217 38 -7.49 -14.9852 26.9734 -7.49 97.3963 26.9734 0.004
GW 218 38 -7.49 -14.9852 27.722662 -7.49 97.3963 27.722662 0.004
GW 219 38 -7.49 -14.9852 28.471925 -7.49 97.3963 28.471925 0.004
GW 220 38 -7.49 -14.9852 29.221187 -7.49 97.3963 29.221187 0.004
GW 221 38 -7.49 -14.9852 29.97045 -7.49 97.3963 29.97045 0.004
GW 222 38 -7.49 -14.9852 30.719712 -7.49 97.3963 30.719712 0.004
GW 223 38 -7.49 -14.9852 31.468975 -7.49 97.3963 31.468975 0.004
GW 224 38 -7.49 -14.9852 32.218238 -7.49 97.3963 32.218238 0.004
GW 225 38 -7.49 -14.9852 32.9675 -7.49 97.3963 32.9675 0.004
GW 226 38 -7.49 -14.9852 33.716763 -7.49 97.3963 33.716763 0.004
GW 227 38 -7.49 -14.9852 34.466025 -7.49 97.3963 34.466025 0.004
GW 228 38 -7.49 -14.9852 35.215288 -7.49 97.3963 35.215288 0.004
GW 229 38 -7.49 -14.9852 35.96455 -7.49 97.3963 35.96455 0.004
GW 230 38 -7.49 -14.9852 36.713812 -7.49 97.3963 36.713812 0.004
GW 231 38 -7.49 -14.9852 37.463075 -7.49 97.3963 37.463075 0.004
GW 232 38 -7.49 -14.9852 38.212337 -7.49 97.3963 38.212337 0.004
GW 233 38 -7.49 -14.9852 38.9616 -7.49 97.3963 38.9616 0.004
GW 234 38 -7.49 -14.9852 39.710862 -7.49 97.3963 39.710862 0.004
GW 235 38 -7.49 -14.9852 40.460125 -7.49 97.3963 40.460125 0.004
GW 236 38 -7.49 -14.9852 41.209387 -7.49 97.3963 41.209387 0.004
GW 237 38 -7.49 -14.9852 41.95865 -7.49 97.3963 41.95865 0.004
GW 238 38 -7.49 -14.9852 42.707912 -7.49 97.3963 42.707912 0.004
GW 239 38 -7.49 -14.9852 43.457175 -7.49 97.3963 43.457175 0.004
GW 240 38 -7.49 -14.9852 44.206437 -7.49 97.3963 44.206437 0.004
GW 241 38 -7.49 -14.9852 44.9557 -7.49 97.3963 44.9557 0.004
GW 242 38 -7.49 -14.9852 45.704963 -7.49 97.3963 45.704963 0.004
GW 243 38 -7.49 -14.9852 46.454225 -7.49 97.3963 46.454225 0.004
GW 244 38 -7.49 -14.9852 47.203487 -7.49 97.3963 47.203487 0.004
GW 245 38 -7.49 -14.9852 47.95275 -7.49 97.3963 47.95275 0.004
GW 246 38 -7.49 -14.9852 48.702012 -7.49 97.3963 48.702012 0.004
GW 247 38 -7.49 -14.9852 49.451275 -7.49 97.3963 49.451275 0.004
GW 248 38 -7.49 -14.9852 50.200537 -7.49 97.3963 50.200537 0.004
GW 249 38 -7.49 -14.9852 50.9498 -7.49 97.3963 50.9498 0.004
GW 250 38 -7.49 -14.9852 51.699062 -7.49 97.3963 51.699062 0.004
GW 251 38 -7.49 -14.9852 52.448325 -7.49 97.3963 52.448325 0.004
GW 252 38 -7.49 -14.9852 53.197587 -7.49 97.3963 53.197587 0.004
GW 253 38 -7.49 -14.9852 53.94685 -7.49 97.3963 53.94685 0.004
GW 254 38 -7.49 -14.9852 54.696112 -7.49 97.3963 54.696112 0.004
GW 255 38 -7.49 -14.9852 55.445375 -7.49 97.3963 55.445375 0.004
GW 256 38 -7.49 -14.9852 56.194637 -7.49 97.3963 56.194637 0.004
GW 257 38 -7.49 -14.9852 56.9439 -7.49 97.3963 56.9439 0.004
GW 258 38 -7.49 -14.9852 57.693162 -7.49 97.3963 57.693162 0.004
GW 259 38 -7.49 -14.9852 58.442425 -7.49 97.3963 58.442425 0.004
GW 260 38 -7.49 -14.9852 59.191687 -7.49 97.3963 59.191687 0.004
GW 261 38 -7.49 -14.9852 59.94095 -7.49 97.3963 59.94095 0.004
GW 401 60 -7.49 -14.9852 59.94095 -7.49 -14.9852 14.9852 0.004
GW 801 7 -7.49 -14.9852 14.9852 -7.49 -14.9852 0 0.004
GW 402 60 -7.49 41.20555 59.94095 -7.49 41.20555 14.9852 0.004
GW 802 7 -7.49 41.20555 14.9852 -7.49 41.20555 0 0.004
GW 403 60 -7.49 97.3963 59.94095 -7.49 97.3963 14.9852 0.004
GW 803 7 -7.49 97.3963 14.9852 -7.49 97.3963 0 0.004
GE 1
EK
TL 101 5 102 5 -50 9
TL 101 5 103 5 -50 9
TL 101 5 104 5 -50 9
TL 101 5 105 5 -50 9
TL 101 5 106 5 -50 9
TL 101 5 107 5 -50 9
TL 101 5 108 5 -50 9
LD 5 0 0 0 3.8E7 0
EX 0 101 5 0 1 0
GN 2 0 0 0 13 0.005
FR 0 1 0 0 10.0 0
RP 0 91 360 1001 0. 0. 1. 1.
