CM Curtain Antenna with Aperiodic Screen Reflector ([217] Centre-fed at 27.0 MHz - Aperiodic Screen Reflector) -- AHRS-4-4-0.8
CM - - - created by 'The I.T.S. S.A.G. ver 0.80' on Mon Sep 23 09:37:25 2013
CM  - Wires 101-199 = Array Elements
CM  - Wires 201-399 = Horizontal Screen Elements
CM  - Wires 401-499 = Vertical Screen Elements
CM  - Wires 801-899 = 'Legs' for Vertical Screen Elements
CE
GW 101 9 0.0 0.0 8.880148 0.0 5.550093 8.880148 0.004
GW 102 9 0.0 8.325139 8.880148 0.0 13.875231 8.880148 0.004
GW 103 9 0.0 16.650278 8.880148 0.0 22.20037 8.880148 0.004
GW 104 9 0.0 24.975417 8.880148 0.0 30.525509 8.880148 0.004
GW 105 9 0.0 0.0 14.430241 0.0 5.550093 14.430241 0.004
GW 106 9 0.0 8.325139 14.430241 0.0 13.875231 14.430241 0.004
GW 107 9 0.0 16.650278 14.430241 0.0 22.20037 14.430241 0.004
GW 108 9 0.0 24.975417 14.430241 0.0 30.525509 14.430241 0.004
GW 109 9 0.0 0.0 19.980333 0.0 5.550093 19.980333 0.004
GW 110 9 0.0 8.325139 19.980333 0.0 13.875231 19.980333 0.004
GW 111 9 0.0 16.650278 19.980333 0.0 22.20037 19.980333 0.004
GW 112 9 0.0 24.975417 19.980333 0.0 30.525509 19.980333 0.004
GW 113 9 0.0 0.0 25.530426 0.0 5.550093 25.530426 0.004
GW 114 9 0.0 8.325139 25.530426 0.0 13.875231 25.530426 0.004
GW 115 9 0.0 16.650278 25.530426 0.0 22.20037 25.530426 0.004
GW 116 9 0.0 24.975417 25.530426 0.0 30.525509 25.530426 0.004
GW 201 38 -2.78 -5.5501 3.3301 -2.78 36.0905 3.3301 0.004
GW 202 38 -2.78 -5.5501 3.607605 -2.78 36.0905 3.607605 0.004
GW 203 38 -2.78 -5.5501 3.885109 -2.78 36.0905 3.885109 0.004
GW 204 38 -2.78 -5.5501 4.162614 -2.78 36.0905 4.162614 0.004
GW 205 38 -2.78 -5.5501 4.440119 -2.78 36.0905 4.440119 0.004
GW 206 38 -2.78 -5.5501 4.717623 -2.78 36.0905 4.717623 0.004
GW 207 38 -2.78 -5.5501 4.995128 -2.78 36.0905 4.995128 0.004
GW 208 38 -2.78 -5.5501 5.272632 -2.78 36.0905 5.272632 0.004
GW 209 38 -2.78 -5.5501 5.550137 -2.78 36.0905 5.550137 0.004
GW 210 38 -2.78 -5.5501 5.827642 -2.78 36.0905 5.827642 0.004
GW 211 38 -2.78 -5.5501 6.105146 -2.78 36.0905 6.105146 0.004
GW 212 38 -2.78 -5.5501 6.382651 -2.78 36.0905 6.382651 0.004
GW 213 38 -2.78 -5.5501 6.660156 -2.78 36.0905 6.660156 0.004
GW 214 38 -2.78 -5.5501 6.93766 -2.78 36.0905 6.93766 0.004
GW 215 38 -2.78 -5.5501 7.215165 -2.78 36.0905 7.215165 0.004
GW 216 38 -2.78 -5.5501 7.492669 -2.78 36.0905 7.492669 0.004
GW 217 38 -2.78 -5.5501 7.770174 -2.78 36.0905 7.770174 0.004
GW 218 38 -2.78 -5.5501 8.047679 -2.78 36.0905 8.047679 0.004
GW 219 38 -2.78 -5.5501 8.325183 -2.78 36.0905 8.325183 0.004
GW 220 38 -2.78 -5.5501 8.602688 -2.78 36.0905 8.602688 0.004
GW 221 38 -2.78 -5.5501 8.880193 -2.78 36.0905 8.880193 0.004
GW 222 38 -2.78 -5.5501 9.157697 -2.78 36.0905 9.157697 0.004
GW 223 38 -2.78 -5.5501 9.435202 -2.78 36.0905 9.435202 0.004
GW 224 38 -2.78 -5.5501 9.712706 -2.78 36.0905 9.712706 0.004
GW 225 38 -2.78 -5.5501 9.990211 -2.78 36.0905 9.990211 0.004
GW 226 38 -2.78 -5.5501 10.267716 -2.78 36.0905 10.267716 0.004
GW 227 38 -2.78 -5.5501 10.54522 -2.78 36.0905 10.54522 0.004
GW 228 38 -2.78 -5.5501 10.822725 -2.78 36.0905 10.822725 0.004
GW 229 38 -2.78 -5.5501 11.10023 -2.78 36.0905 11.10023 0.004
GW 230 38 -2.78 -5.5501 11.377734 -2.78 36.0905 11.377734 0.004
GW 231 38 -2.78 -5.5501 11.655239 -2.78 36.0905 11.655239 0.004
GW 232 38 -2.78 -5.5501 11.932744 -2.78 36.0905 11.932744 0.004
GW 233 38 -2.78 -5.5501 12.210248 -2.78 36.0905 12.210248 0.004
GW 234 38 -2.78 -5.5501 12.487753 -2.78 36.0905 12.487753 0.004
GW 235 38 -2.78 -5.5501 12.765257 -2.78 36.0905 12.765257 0.004
GW 236 38 -2.78 -5.5501 13.042762 -2.78 36.0905 13.042762 0.004
GW 237 38 -2.78 -5.5501 13.320267 -2.78 36.0905 13.320267 0.004
GW 238 38 -2.78 -5.5501 13.597771 -2.78 36.0905 13.597771 0.004
GW 239 38 -2.78 -5.5501 13.875276 -2.78 36.0905 13.875276 0.004
GW 240 38 -2.78 -5.5501 14.152781 -2.78 36.0905 14.152781 0.004
GW 241 38 -2.78 -5.5501 14.430285 -2.78 36.0905 14.430285 0.004
GW 242 38 -2.78 -5.5501 14.70779 -2.78 36.0905 14.70779 0.004
GW 243 38 -2.78 -5.5501 14.985294 -2.78 36.0905 14.985294 0.004
GW 244 38 -2.78 -5.5501 15.262799 -2.78 36.0905 15.262799 0.004
GW 245 38 -2.78 -5.5501 15.540304 -2.78 36.0905 15.540304 0.004
GW 246 38 -2.78 -5.5501 15.817808 -2.78 36.0905 15.817808 0.004
GW 247 38 -2.78 -5.5501 16.095313 -2.78 36.0905 16.095313 0.004
GW 248 38 -2.78 -5.5501 16.372818 -2.78 36.0905 16.372818 0.004
GW 249 38 -2.78 -5.5501 16.650322 -2.78 36.0905 16.650322 0.004
GW 250 38 -2.78 -5.5501 16.927827 -2.78 36.0905 16.927827 0.004
GW 251 38 -2.78 -5.5501 17.205331 -2.78 36.0905 17.205331 0.004
GW 252 38 -2.78 -5.5501 17.482836 -2.78 36.0905 17.482836 0.004
GW 253 38 -2.78 -5.5501 17.760341 -2.78 36.0905 17.760341 0.004
GW 254 38 -2.78 -5.5501 18.037845 -2.78 36.0905 18.037845 0.004
GW 255 38 -2.78 -5.5501 18.31535 -2.78 36.0905 18.31535 0.004
GW 256 38 -2.78 -5.5501 18.592855 -2.78 36.0905 18.592855 0.004
GW 257 38 -2.78 -5.5501 18.870359 -2.78 36.0905 18.870359 0.004
GW 258 38 -2.78 -5.5501 19.147864 -2.78 36.0905 19.147864 0.004
GW 259 38 -2.78 -5.5501 19.425369 -2.78 36.0905 19.425369 0.004
GW 260 38 -2.78 -5.5501 19.702873 -2.78 36.0905 19.702873 0.004
GW 261 38 -2.78 -5.5501 19.980378 -2.78 36.0905 19.980378 0.004
GW 262 38 -2.78 -5.5501 20.257882 -2.78 36.0905 20.257882 0.004
GW 263 38 -2.78 -5.5501 20.535387 -2.78 36.0905 20.535387 0.004
GW 264 38 -2.78 -5.5501 20.812892 -2.78 36.0905 20.812892 0.004
GW 265 38 -2.78 -5.5501 21.090396 -2.78 36.0905 21.090396 0.004
GW 266 38 -2.78 -5.5501 21.367901 -2.78 36.0905 21.367901 0.004
GW 267 38 -2.78 -5.5501 21.645406 -2.78 36.0905 21.645406 0.004
GW 268 38 -2.78 -5.5501 21.92291 -2.78 36.0905 21.92291 0.004
GW 269 38 -2.78 -5.5501 22.200415 -2.78 36.0905 22.200415 0.004
GW 270 38 -2.78 -5.5501 22.477919 -2.78 36.0905 22.477919 0.004
GW 271 38 -2.78 -5.5501 22.755424 -2.78 36.0905 22.755424 0.004
GW 272 38 -2.78 -5.5501 23.032929 -2.78 36.0905 23.032929 0.004
GW 273 38 -2.78 -5.5501 23.310433 -2.78 36.0905 23.310433 0.004
GW 274 38 -2.78 -5.5501 23.587938 -2.78 36.0905 23.587938 0.004
GW 275 38 -2.78 -5.5501 23.865443 -2.78 36.0905 23.865443 0.004
GW 276 38 -2.78 -5.5501 24.142947 -2.78 36.0905 24.142947 0.004
GW 277 38 -2.78 -5.5501 24.420452 -2.78 36.0905 24.420452 0.004
GW 278 38 -2.78 -5.5501 24.697956 -2.78 36.0905 24.697956 0.004
GW 279 38 -2.78 -5.5501 24.975461 -2.78 36.0905 24.975461 0.004
GW 280 38 -2.78 -5.5501 25.252966 -2.78 36.0905 25.252966 0.004
GW 281 38 -2.78 -5.5501 25.53047 -2.78 36.0905 25.53047 0.004
GW 282 38 -2.78 -5.5501 25.807975 -2.78 36.0905 25.807975 0.004
GW 283 38 -2.78 -5.5501 26.08548 -2.78 36.0905 26.08548 0.004
GW 284 38 -2.78 -5.5501 26.362984 -2.78 36.0905 26.362984 0.004
GW 285 38 -2.78 -5.5501 26.640489 -2.78 36.0905 26.640489 0.004
GW 286 38 -2.78 -5.5501 26.917994 -2.78 36.0905 26.917994 0.004
GW 287 38 -2.78 -5.5501 27.195498 -2.78 36.0905 27.195498 0.004
GW 288 38 -2.78 -5.5501 27.473003 -2.78 36.0905 27.473003 0.004
GW 289 38 -2.78 -5.5501 27.750507 -2.78 36.0905 27.750507 0.004
GW 290 38 -2.78 -5.5501 28.028012 -2.78 36.0905 28.028012 0.004
GW 291 38 -2.78 -5.5501 28.305517 -2.78 36.0905 28.305517 0.004
GW 292 38 -2.78 -5.5501 28.583021 -2.78 36.0905 28.583021 0.004
GW 293 38 -2.78 -5.5501 28.860526 -2.78 36.0905 28.860526 0.004
GW 294 38 -2.78 -5.5501 29.138031 -2.78 36.0905 29.138031 0.004
GW 295 38 -2.78 -5.5501 29.415535 -2.78 36.0905 29.415535 0.004
GW 296 38 -2.78 -5.5501 29.69304 -2.78 36.0905 29.69304 0.004
GW 297 38 -2.78 -5.5501 29.970544 -2.78 36.0905 29.970544 0.004
GW 298 38 -2.78 -5.5501 30.248049 -2.78 36.0905 30.248049 0.004
GW 299 38 -2.78 -5.5501 30.525554 -2.78 36.0905 30.525554 0.004
GW 300 38 -2.78 -5.5501 30.803058 -2.78 36.0905 30.803058 0.004
GW 401 99 -2.78 -5.5501 30.803058 -2.78 -5.5501 3.3301 0.004
GW 801 4 -2.78 -5.5501 3.3301 -2.78 -5.5501 0 0.004
GW 402 99 -2.78 15.2702 30.803058 -2.78 15.2702 3.3301 0.004
GW 802 4 -2.78 15.2702 3.3301 -2.78 15.2702 0 0.004
GW 403 99 -2.78 36.0905 30.803058 -2.78 36.0905 3.3301 0.004
GW 803 4 -2.78 36.0905 3.3301 -2.78 36.0905 0 0.004
GE 1
EK
TL 101 5 102 5 -50 12
TL 101 5 103 5 -50 12
TL 101 5 104 5 -50 12
TL 101 5 105 5 -50 12
TL 101 5 106 5 -50 12
TL 101 5 107 5 -50 12
TL 101 5 108 5 -50 12
TL 101 5 109 5 -50 12
TL 101 5 110 5 -50 12
TL 101 5 111 5 -50 12
TL 101 5 112 5 -50 12
TL 101 5 113 5 -50 12
TL 101 5 114 5 -50 12
TL 101 5 115 5 -50 12
TL 101 5 116 5 -50 12
LD 5 0 0 0 3.8E7 0
EX 0 101 5 0 1 0
GN 2 0 0 0 13 0.005
FR 0 1 0 0 27.0 0
RP 0 91 360 1001 0. 0. 1. 1.
