CM Curtain Antenna with Aperiodic Screen Reflector ([158] Centre-fed at 6.0 MHz - Aperiodic Screen Reflector) -- AHRS-2-4-1.0
CM - - - created by 'The I.T.S. S.A.G. ver 0.80' on Mon Sep 23 09:37:25 2013
CM  - Wires 101-199 = Array Elements
CM  - Wires 201-399 = Horizontal Screen Elements
CM  - Wires 401-499 = Vertical Screen Elements
CM  - Wires 801-899 = 'Legs' for Vertical Screen Elements
CE
GW 101 9 0.0 0.0 49.950833 0.0 24.975417 49.950833 0.004
GW 102 9 0.0 37.463125 49.950833 0.0 62.438542 49.950833 0.004
GW 103 9 0.0 0.0 74.92625 0.0 24.975417 74.92625 0.004
GW 104 9 0.0 37.463125 74.92625 0.0 62.438542 74.92625 0.004
GW 105 9 0.0 0.0 99.901667 0.0 24.975417 99.901667 0.004
GW 106 9 0.0 37.463125 99.901667 0.0 62.438542 99.901667 0.004
GW 107 9 0.0 0.0 124.877083 0.0 24.975417 124.877083 0.004
GW 108 9 0.0 37.463125 124.877083 0.0 62.438542 124.877083 0.004
GW 201 24 -12.49 -24.9754 24.9754 -12.49 87.4163 24.9754 0.004
GW 202 24 -12.49 -24.9754 26.224171 -12.49 87.4163 26.224171 0.004
GW 203 24 -12.49 -24.9754 27.472942 -12.49 87.4163 27.472942 0.004
GW 204 24 -12.49 -24.9754 28.721713 -12.49 87.4163 28.721713 0.004
GW 205 24 -12.49 -24.9754 29.970483 -12.49 87.4163 29.970483 0.004
GW 206 24 -12.49 -24.9754 31.219254 -12.49 87.4163 31.219254 0.004
GW 207 24 -12.49 -24.9754 32.468025 -12.49 87.4163 32.468025 0.004
GW 208 24 -12.49 -24.9754 33.716796 -12.49 87.4163 33.716796 0.004
GW 209 24 -12.49 -24.9754 34.965567 -12.49 87.4163 34.965567 0.004
GW 210 24 -12.49 -24.9754 36.214337 -12.49 87.4163 36.214337 0.004
GW 211 24 -12.49 -24.9754 37.463108 -12.49 87.4163 37.463108 0.004
GW 212 24 -12.49 -24.9754 38.711879 -12.49 87.4163 38.711879 0.004
GW 213 24 -12.49 -24.9754 39.96065 -12.49 87.4163 39.96065 0.004
GW 214 24 -12.49 -24.9754 41.209421 -12.49 87.4163 41.209421 0.004
GW 215 24 -12.49 -24.9754 42.458192 -12.49 87.4163 42.458192 0.004
GW 216 24 -12.49 -24.9754 43.706963 -12.49 87.4163 43.706963 0.004
GW 217 24 -12.49 -24.9754 44.955733 -12.49 87.4163 44.955733 0.004
GW 218 24 -12.49 -24.9754 46.204504 -12.49 87.4163 46.204504 0.004
GW 219 24 -12.49 -24.9754 47.453275 -12.49 87.4163 47.453275 0.004
GW 220 24 -12.49 -24.9754 48.702046 -12.49 87.4163 48.702046 0.004
GW 221 24 -12.49 -24.9754 49.950817 -12.49 87.4163 49.950817 0.004
GW 222 24 -12.49 -24.9754 51.199587 -12.49 87.4163 51.199587 0.004
GW 223 24 -12.49 -24.9754 52.448358 -12.49 87.4163 52.448358 0.004
GW 224 24 -12.49 -24.9754 53.697129 -12.49 87.4163 53.697129 0.004
GW 225 24 -12.49 -24.9754 54.9459 -12.49 87.4163 54.9459 0.004
GW 226 24 -12.49 -24.9754 56.194671 -12.49 87.4163 56.194671 0.004
GW 227 24 -12.49 -24.9754 57.443442 -12.49 87.4163 57.443442 0.004
GW 228 24 -12.49 -24.9754 58.692213 -12.49 87.4163 58.692213 0.004
GW 229 24 -12.49 -24.9754 59.940983 -12.49 87.4163 59.940983 0.004
GW 230 24 -12.49 -24.9754 61.189754 -12.49 87.4163 61.189754 0.004
GW 231 24 -12.49 -24.9754 62.438525 -12.49 87.4163 62.438525 0.004
GW 232 24 -12.49 -24.9754 63.687296 -12.49 87.4163 63.687296 0.004
GW 233 24 -12.49 -24.9754 64.936067 -12.49 87.4163 64.936067 0.004
GW 234 24 -12.49 -24.9754 66.184838 -12.49 87.4163 66.184838 0.004
GW 235 24 -12.49 -24.9754 67.433608 -12.49 87.4163 67.433608 0.004
GW 236 24 -12.49 -24.9754 68.682379 -12.49 87.4163 68.682379 0.004
GW 237 24 -12.49 -24.9754 69.93115 -12.49 87.4163 69.93115 0.004
GW 238 24 -12.49 -24.9754 71.179921 -12.49 87.4163 71.179921 0.004
GW 239 24 -12.49 -24.9754 72.428692 -12.49 87.4163 72.428692 0.004
GW 240 24 -12.49 -24.9754 73.677463 -12.49 87.4163 73.677463 0.004
GW 241 24 -12.49 -24.9754 74.926233 -12.49 87.4163 74.926233 0.004
GW 242 24 -12.49 -24.9754 76.175004 -12.49 87.4163 76.175004 0.004
GW 243 24 -12.49 -24.9754 77.423775 -12.49 87.4163 77.423775 0.004
GW 244 24 -12.49 -24.9754 78.672546 -12.49 87.4163 78.672546 0.004
GW 245 24 -12.49 -24.9754 79.921317 -12.49 87.4163 79.921317 0.004
GW 246 24 -12.49 -24.9754 81.170087 -12.49 87.4163 81.170087 0.004
GW 247 24 -12.49 -24.9754 82.418858 -12.49 87.4163 82.418858 0.004
GW 248 24 -12.49 -24.9754 83.667629 -12.49 87.4163 83.667629 0.004
GW 249 24 -12.49 -24.9754 84.9164 -12.49 87.4163 84.9164 0.004
GW 250 24 -12.49 -24.9754 86.165171 -12.49 87.4163 86.165171 0.004
GW 251 24 -12.49 -24.9754 87.413942 -12.49 87.4163 87.413942 0.004
GW 252 24 -12.49 -24.9754 88.662712 -12.49 87.4163 88.662712 0.004
GW 253 24 -12.49 -24.9754 89.911483 -12.49 87.4163 89.911483 0.004
GW 254 24 -12.49 -24.9754 91.160254 -12.49 87.4163 91.160254 0.004
GW 255 24 -12.49 -24.9754 92.409025 -12.49 87.4163 92.409025 0.004
GW 256 24 -12.49 -24.9754 93.657796 -12.49 87.4163 93.657796 0.004
GW 257 24 -12.49 -24.9754 94.906567 -12.49 87.4163 94.906567 0.004
GW 258 24 -12.49 -24.9754 96.155338 -12.49 87.4163 96.155338 0.004
GW 259 24 -12.49 -24.9754 97.404108 -12.49 87.4163 97.404108 0.004
GW 260 24 -12.49 -24.9754 98.652879 -12.49 87.4163 98.652879 0.004
GW 261 24 -12.49 -24.9754 99.90165 -12.49 87.4163 99.90165 0.004
GW 262 24 -12.49 -24.9754 101.150421 -12.49 87.4163 101.150421 0.004
GW 263 24 -12.49 -24.9754 102.399192 -12.49 87.4163 102.399192 0.004
GW 264 24 -12.49 -24.9754 103.647963 -12.49 87.4163 103.647963 0.004
GW 265 24 -12.49 -24.9754 104.896733 -12.49 87.4163 104.896733 0.004
GW 266 24 -12.49 -24.9754 106.145504 -12.49 87.4163 106.145504 0.004
GW 267 24 -12.49 -24.9754 107.394275 -12.49 87.4163 107.394275 0.004
GW 268 24 -12.49 -24.9754 108.643046 -12.49 87.4163 108.643046 0.004
GW 269 24 -12.49 -24.9754 109.891817 -12.49 87.4163 109.891817 0.004
GW 270 24 -12.49 -24.9754 111.140588 -12.49 87.4163 111.140588 0.004
GW 271 24 -12.49 -24.9754 112.389358 -12.49 87.4163 112.389358 0.004
GW 272 24 -12.49 -24.9754 113.638129 -12.49 87.4163 113.638129 0.004
GW 273 24 -12.49 -24.9754 114.8869 -12.49 87.4163 114.8869 0.004
GW 274 24 -12.49 -24.9754 116.135671 -12.49 87.4163 116.135671 0.004
GW 275 24 -12.49 -24.9754 117.384442 -12.49 87.4163 117.384442 0.004
GW 276 24 -12.49 -24.9754 118.633213 -12.49 87.4163 118.633213 0.004
GW 277 24 -12.49 -24.9754 119.881983 -12.49 87.4163 119.881983 0.004
GW 278 24 -12.49 -24.9754 121.130754 -12.49 87.4163 121.130754 0.004
GW 279 24 -12.49 -24.9754 122.379525 -12.49 87.4163 122.379525 0.004
GW 280 24 -12.49 -24.9754 123.628296 -12.49 87.4163 123.628296 0.004
GW 281 24 -12.49 -24.9754 124.877067 -12.49 87.4163 124.877067 0.004
GW 282 24 -12.49 -24.9754 126.125838 -12.49 87.4163 126.125838 0.004
GW 283 24 -12.49 -24.9754 127.374608 -12.49 87.4163 127.374608 0.004
GW 284 24 -12.49 -24.9754 128.623379 -12.49 87.4163 128.623379 0.004
GW 285 24 -12.49 -24.9754 129.87215 -12.49 87.4163 129.87215 0.004
GW 286 24 -12.49 -24.9754 131.120921 -12.49 87.4163 131.120921 0.004
GW 287 24 -12.49 -24.9754 132.369692 -12.49 87.4163 132.369692 0.004
GW 288 24 -12.49 -24.9754 133.618462 -12.49 87.4163 133.618462 0.004
GW 289 24 -12.49 -24.9754 134.867233 -12.49 87.4163 134.867233 0.004
GW 290 24 -12.49 -24.9754 136.116004 -12.49 87.4163 136.116004 0.004
GW 291 24 -12.49 -24.9754 137.364775 -12.49 87.4163 137.364775 0.004
GW 292 24 -12.49 -24.9754 138.613546 -12.49 87.4163 138.613546 0.004
GW 293 24 -12.49 -24.9754 139.862317 -12.49 87.4163 139.862317 0.004
GW 294 24 -12.49 -24.9754 141.111087 -12.49 87.4163 141.111087 0.004
GW 295 24 -12.49 -24.9754 142.359858 -12.49 87.4163 142.359858 0.004
GW 296 24 -12.49 -24.9754 143.608629 -12.49 87.4163 143.608629 0.004
GW 297 24 -12.49 -24.9754 144.8574 -12.49 87.4163 144.8574 0.004
GW 298 24 -12.49 -24.9754 146.106171 -12.49 87.4163 146.106171 0.004
GW 299 24 -12.49 -24.9754 147.354942 -12.49 87.4163 147.354942 0.004
GW 300 24 -12.49 -24.9754 148.603713 -12.49 87.4163 148.603713 0.004
GW 301 24 -12.49 -24.9754 149.852483 -12.49 87.4163 149.852483 0.004
GW 401 100 -12.49 -24.9754 149.852483 -12.49 -24.9754 24.9754 0.004
GW 801 7 -12.49 -24.9754 24.9754 -12.49 -24.9754 0 0.004
GW 402 100 -12.49 31.22045 149.852483 -12.49 31.22045 24.9754 0.004
GW 802 7 -12.49 31.22045 24.9754 -12.49 31.22045 0 0.004
GW 403 100 -12.49 87.4163 149.852483 -12.49 87.4163 24.9754 0.004
GW 803 7 -12.49 87.4163 24.9754 -12.49 87.4163 0 0.004
GE 1
EK
TL 101 5 102 5 -50 9
TL 101 5 103 5 -50 9
TL 101 5 104 5 -50 9
TL 101 5 105 5 -50 9
TL 101 5 106 5 -50 9
TL 101 5 107 5 -50 9
TL 101 5 108 5 -50 9
LD 5 0 0 0 3.8E7 0
EX 0 101 5 0 1 0
GN 2 0 0 0 13 0.005
FR 0 1 0 0 6.0 0
RP 0 91 360 1001 0. 0. 1. 1.
