CM Curtain Antenna with Aperiodic Screen Reflector ([158] Centre-fed at 13.0 MHz - Aperiodic Screen Reflector) -- AHRS-2-4-1.0
CM - - - created by 'The I.T.S. S.A.G. ver 0.80' on Mon Sep 23 09:37:25 2013
CM  - Wires 101-199 = Array Elements
CM  - Wires 201-399 = Horizontal Screen Elements
CM  - Wires 401-499 = Vertical Screen Elements
CM  - Wires 801-899 = 'Legs' for Vertical Screen Elements
CE
GW 101 9 0.0 0.0 23.054231 0.0 11.527115 23.054231 0.004
GW 102 9 0.0 17.290673 23.054231 0.0 28.817788 23.054231 0.004
GW 103 9 0.0 0.0 34.581346 0.0 11.527115 34.581346 0.004
GW 104 9 0.0 17.290673 34.581346 0.0 28.817788 34.581346 0.004
GW 105 9 0.0 0.0 46.108462 0.0 11.527115 46.108462 0.004
GW 106 9 0.0 17.290673 46.108462 0.0 28.817788 46.108462 0.004
GW 107 9 0.0 0.0 57.635577 0.0 11.527115 57.635577 0.004
GW 108 9 0.0 17.290673 57.635577 0.0 28.817788 57.635577 0.004
GW 201 24 -5.76 -11.5271 11.5271 -5.76 40.3414 11.5271 0.004
GW 202 24 -5.76 -11.5271 12.103456 -5.76 40.3414 12.103456 0.004
GW 203 24 -5.76 -11.5271 12.679812 -5.76 40.3414 12.679812 0.004
GW 204 24 -5.76 -11.5271 13.256167 -5.76 40.3414 13.256167 0.004
GW 205 24 -5.76 -11.5271 13.832523 -5.76 40.3414 13.832523 0.004
GW 206 24 -5.76 -11.5271 14.408879 -5.76 40.3414 14.408879 0.004
GW 207 24 -5.76 -11.5271 14.985235 -5.76 40.3414 14.985235 0.004
GW 208 24 -5.76 -11.5271 15.56159 -5.76 40.3414 15.56159 0.004
GW 209 24 -5.76 -11.5271 16.137946 -5.76 40.3414 16.137946 0.004
GW 210 24 -5.76 -11.5271 16.714302 -5.76 40.3414 16.714302 0.004
GW 211 24 -5.76 -11.5271 17.290658 -5.76 40.3414 17.290658 0.004
GW 212 24 -5.76 -11.5271 17.867013 -5.76 40.3414 17.867013 0.004
GW 213 24 -5.76 -11.5271 18.443369 -5.76 40.3414 18.443369 0.004
GW 214 24 -5.76 -11.5271 19.019725 -5.76 40.3414 19.019725 0.004
GW 215 24 -5.76 -11.5271 19.596081 -5.76 40.3414 19.596081 0.004
GW 216 24 -5.76 -11.5271 20.172437 -5.76 40.3414 20.172437 0.004
GW 217 24 -5.76 -11.5271 20.748792 -5.76 40.3414 20.748792 0.004
GW 218 24 -5.76 -11.5271 21.325148 -5.76 40.3414 21.325148 0.004
GW 219 24 -5.76 -11.5271 21.901504 -5.76 40.3414 21.901504 0.004
GW 220 24 -5.76 -11.5271 22.47786 -5.76 40.3414 22.47786 0.004
GW 221 24 -5.76 -11.5271 23.054215 -5.76 40.3414 23.054215 0.004
GW 222 24 -5.76 -11.5271 23.630571 -5.76 40.3414 23.630571 0.004
GW 223 24 -5.76 -11.5271 24.206927 -5.76 40.3414 24.206927 0.004
GW 224 24 -5.76 -11.5271 24.783283 -5.76 40.3414 24.783283 0.004
GW 225 24 -5.76 -11.5271 25.359638 -5.76 40.3414 25.359638 0.004
GW 226 24 -5.76 -11.5271 25.935994 -5.76 40.3414 25.935994 0.004
GW 227 24 -5.76 -11.5271 26.51235 -5.76 40.3414 26.51235 0.004
GW 228 24 -5.76 -11.5271 27.088706 -5.76 40.3414 27.088706 0.004
GW 229 24 -5.76 -11.5271 27.665062 -5.76 40.3414 27.665062 0.004
GW 230 24 -5.76 -11.5271 28.241417 -5.76 40.3414 28.241417 0.004
GW 231 24 -5.76 -11.5271 28.817773 -5.76 40.3414 28.817773 0.004
GW 232 24 -5.76 -11.5271 29.394129 -5.76 40.3414 29.394129 0.004
GW 233 24 -5.76 -11.5271 29.970485 -5.76 40.3414 29.970485 0.004
GW 234 24 -5.76 -11.5271 30.54684 -5.76 40.3414 30.54684 0.004
GW 235 24 -5.76 -11.5271 31.123196 -5.76 40.3414 31.123196 0.004
GW 236 24 -5.76 -11.5271 31.699552 -5.76 40.3414 31.699552 0.004
GW 237 24 -5.76 -11.5271 32.275908 -5.76 40.3414 32.275908 0.004
GW 238 24 -5.76 -11.5271 32.852263 -5.76 40.3414 32.852263 0.004
GW 239 24 -5.76 -11.5271 33.428619 -5.76 40.3414 33.428619 0.004
GW 240 24 -5.76 -11.5271 34.004975 -5.76 40.3414 34.004975 0.004
GW 241 24 -5.76 -11.5271 34.581331 -5.76 40.3414 34.581331 0.004
GW 242 24 -5.76 -11.5271 35.157687 -5.76 40.3414 35.157687 0.004
GW 243 24 -5.76 -11.5271 35.734042 -5.76 40.3414 35.734042 0.004
GW 244 24 -5.76 -11.5271 36.310398 -5.76 40.3414 36.310398 0.004
GW 245 24 -5.76 -11.5271 36.886754 -5.76 40.3414 36.886754 0.004
GW 246 24 -5.76 -11.5271 37.46311 -5.76 40.3414 37.46311 0.004
GW 247 24 -5.76 -11.5271 38.039465 -5.76 40.3414 38.039465 0.004
GW 248 24 -5.76 -11.5271 38.615821 -5.76 40.3414 38.615821 0.004
GW 249 24 -5.76 -11.5271 39.192177 -5.76 40.3414 39.192177 0.004
GW 250 24 -5.76 -11.5271 39.768533 -5.76 40.3414 39.768533 0.004
GW 251 24 -5.76 -11.5271 40.344888 -5.76 40.3414 40.344888 0.004
GW 252 24 -5.76 -11.5271 40.921244 -5.76 40.3414 40.921244 0.004
GW 253 24 -5.76 -11.5271 41.4976 -5.76 40.3414 41.4976 0.004
GW 254 24 -5.76 -11.5271 42.073956 -5.76 40.3414 42.073956 0.004
GW 255 24 -5.76 -11.5271 42.650312 -5.76 40.3414 42.650312 0.004
GW 256 24 -5.76 -11.5271 43.226667 -5.76 40.3414 43.226667 0.004
GW 257 24 -5.76 -11.5271 43.803023 -5.76 40.3414 43.803023 0.004
GW 258 24 -5.76 -11.5271 44.379379 -5.76 40.3414 44.379379 0.004
GW 259 24 -5.76 -11.5271 44.955735 -5.76 40.3414 44.955735 0.004
GW 260 24 -5.76 -11.5271 45.53209 -5.76 40.3414 45.53209 0.004
GW 261 24 -5.76 -11.5271 46.108446 -5.76 40.3414 46.108446 0.004
GW 262 24 -5.76 -11.5271 46.684802 -5.76 40.3414 46.684802 0.004
GW 263 24 -5.76 -11.5271 47.261158 -5.76 40.3414 47.261158 0.004
GW 264 24 -5.76 -11.5271 47.837513 -5.76 40.3414 47.837513 0.004
GW 265 24 -5.76 -11.5271 48.413869 -5.76 40.3414 48.413869 0.004
GW 266 24 -5.76 -11.5271 48.990225 -5.76 40.3414 48.990225 0.004
GW 267 24 -5.76 -11.5271 49.566581 -5.76 40.3414 49.566581 0.004
GW 268 24 -5.76 -11.5271 50.142937 -5.76 40.3414 50.142937 0.004
GW 269 24 -5.76 -11.5271 50.719292 -5.76 40.3414 50.719292 0.004
GW 270 24 -5.76 -11.5271 51.295648 -5.76 40.3414 51.295648 0.004
GW 271 24 -5.76 -11.5271 51.872004 -5.76 40.3414 51.872004 0.004
GW 272 24 -5.76 -11.5271 52.44836 -5.76 40.3414 52.44836 0.004
GW 273 24 -5.76 -11.5271 53.024715 -5.76 40.3414 53.024715 0.004
GW 274 24 -5.76 -11.5271 53.601071 -5.76 40.3414 53.601071 0.004
GW 275 24 -5.76 -11.5271 54.177427 -5.76 40.3414 54.177427 0.004
GW 276 24 -5.76 -11.5271 54.753783 -5.76 40.3414 54.753783 0.004
GW 277 24 -5.76 -11.5271 55.330138 -5.76 40.3414 55.330138 0.004
GW 278 24 -5.76 -11.5271 55.906494 -5.76 40.3414 55.906494 0.004
GW 279 24 -5.76 -11.5271 56.48285 -5.76 40.3414 56.48285 0.004
GW 280 24 -5.76 -11.5271 57.059206 -5.76 40.3414 57.059206 0.004
GW 281 24 -5.76 -11.5271 57.635562 -5.76 40.3414 57.635562 0.004
GW 282 24 -5.76 -11.5271 58.211917 -5.76 40.3414 58.211917 0.004
GW 283 24 -5.76 -11.5271 58.788273 -5.76 40.3414 58.788273 0.004
GW 284 24 -5.76 -11.5271 59.364629 -5.76 40.3414 59.364629 0.004
GW 285 24 -5.76 -11.5271 59.940985 -5.76 40.3414 59.940985 0.004
GW 286 24 -5.76 -11.5271 60.51734 -5.76 40.3414 60.51734 0.004
GW 287 24 -5.76 -11.5271 61.093696 -5.76 40.3414 61.093696 0.004
GW 288 24 -5.76 -11.5271 61.670052 -5.76 40.3414 61.670052 0.004
GW 289 24 -5.76 -11.5271 62.246408 -5.76 40.3414 62.246408 0.004
GW 290 24 -5.76 -11.5271 62.822763 -5.76 40.3414 62.822763 0.004
GW 291 24 -5.76 -11.5271 63.399119 -5.76 40.3414 63.399119 0.004
GW 292 24 -5.76 -11.5271 63.975475 -5.76 40.3414 63.975475 0.004
GW 293 24 -5.76 -11.5271 64.551831 -5.76 40.3414 64.551831 0.004
GW 294 24 -5.76 -11.5271 65.128187 -5.76 40.3414 65.128187 0.004
GW 295 24 -5.76 -11.5271 65.704542 -5.76 40.3414 65.704542 0.004
GW 296 24 -5.76 -11.5271 66.280898 -5.76 40.3414 66.280898 0.004
GW 297 24 -5.76 -11.5271 66.857254 -5.76 40.3414 66.857254 0.004
GW 298 24 -5.76 -11.5271 67.43361 -5.76 40.3414 67.43361 0.004
GW 299 24 -5.76 -11.5271 68.009965 -5.76 40.3414 68.009965 0.004
GW 300 24 -5.76 -11.5271 68.586321 -5.76 40.3414 68.586321 0.004
GW 301 24 -5.76 -11.5271 69.162677 -5.76 40.3414 69.162677 0.004
GW 401 100 -5.76 -11.5271 69.162677 -5.76 -11.5271 11.5271 0.004
GW 801 7 -5.76 -11.5271 11.5271 -5.76 -11.5271 0 0.004
GW 402 100 -5.76 14.40715 69.162677 -5.76 14.40715 11.5271 0.004
GW 802 7 -5.76 14.40715 11.5271 -5.76 14.40715 0 0.004
GW 403 100 -5.76 40.3414 69.162677 -5.76 40.3414 11.5271 0.004
GW 803 7 -5.76 40.3414 11.5271 -5.76 40.3414 0 0.004
GE 1
EK
TL 101 5 102 5 -50 9
TL 101 5 103 5 -50 9
TL 101 5 104 5 -50 9
TL 101 5 105 5 -50 9
TL 101 5 106 5 -50 9
TL 101 5 107 5 -50 9
TL 101 5 108 5 -50 9
LD 5 0 0 0 3.8E7 0
EX 0 101 5 0 1 0
GN 2 0 0 0 13 0.005
FR 0 1 0 0 13.0 0
RP 0 91 360 1001 0. 0. 1. 1.
