CM Curtain Antenna with Aperiodic Screen Reflector ([211] Centre-fed at 17.0 MHz - Aperiodic Screen Reflector) -- AHRS-4-3-0.5
CM - - - created by 'The I.T.S. S.A.G. ver 0.80' on Mon Sep 23 09:37:25 2013
CM  - Wires 101-199 = Array Elements
CM  - Wires 201-399 = Horizontal Screen Elements
CM  - Wires 401-499 = Vertical Screen Elements
CM  - Wires 801-899 = 'Legs' for Vertical Screen Elements
CE
GW 101 9 0.0 0.0 8.814853 0.0 8.814853 8.814853 0.004
GW 102 9 0.0 13.222279 8.814853 0.0 22.037132 8.814853 0.004
GW 103 9 0.0 26.444559 8.814853 0.0 35.259412 8.814853 0.004
GW 104 9 0.0 39.666838 8.814853 0.0 48.481691 8.814853 0.004
GW 105 9 0.0 0.0 17.629706 0.0 8.814853 17.629706 0.004
GW 106 9 0.0 13.222279 17.629706 0.0 22.037132 17.629706 0.004
GW 107 9 0.0 26.444559 17.629706 0.0 35.259412 17.629706 0.004
GW 108 9 0.0 39.666838 17.629706 0.0 48.481691 17.629706 0.004
GW 109 9 0.0 0.0 26.444559 0.0 8.814853 26.444559 0.004
GW 110 9 0.0 13.222279 26.444559 0.0 22.037132 26.444559 0.004
GW 111 9 0.0 26.444559 26.444559 0.0 35.259412 26.444559 0.004
GW 112 9 0.0 39.666838 26.444559 0.0 48.481691 26.444559 0.004
GW 201 38 -4.41 -8.8149 1.763 -4.41 57.3042 1.763 0.004
GW 202 38 -4.41 -8.8149 2.203743 -4.41 57.3042 2.203743 0.004
GW 203 38 -4.41 -8.8149 2.644485 -4.41 57.3042 2.644485 0.004
GW 204 38 -4.41 -8.8149 3.085228 -4.41 57.3042 3.085228 0.004
GW 205 38 -4.41 -8.8149 3.525971 -4.41 57.3042 3.525971 0.004
GW 206 38 -4.41 -8.8149 3.966713 -4.41 57.3042 3.966713 0.004
GW 207 38 -4.41 -8.8149 4.407456 -4.41 57.3042 4.407456 0.004
GW 208 38 -4.41 -8.8149 4.848199 -4.41 57.3042 4.848199 0.004
GW 209 38 -4.41 -8.8149 5.288941 -4.41 57.3042 5.288941 0.004
GW 210 38 -4.41 -8.8149 5.729684 -4.41 57.3042 5.729684 0.004
GW 211 38 -4.41 -8.8149 6.170426 -4.41 57.3042 6.170426 0.004
GW 212 38 -4.41 -8.8149 6.611169 -4.41 57.3042 6.611169 0.004
GW 213 38 -4.41 -8.8149 7.051912 -4.41 57.3042 7.051912 0.004
GW 214 38 -4.41 -8.8149 7.492654 -4.41 57.3042 7.492654 0.004
GW 215 38 -4.41 -8.8149 7.933397 -4.41 57.3042 7.933397 0.004
GW 216 38 -4.41 -8.8149 8.37414 -4.41 57.3042 8.37414 0.004
GW 217 38 -4.41 -8.8149 8.814882 -4.41 57.3042 8.814882 0.004
GW 218 38 -4.41 -8.8149 9.255625 -4.41 57.3042 9.255625 0.004
GW 219 38 -4.41 -8.8149 9.696368 -4.41 57.3042 9.696368 0.004
GW 220 38 -4.41 -8.8149 10.13711 -4.41 57.3042 10.13711 0.004
GW 221 38 -4.41 -8.8149 10.577853 -4.41 57.3042 10.577853 0.004
GW 222 38 -4.41 -8.8149 11.018596 -4.41 57.3042 11.018596 0.004
GW 223 38 -4.41 -8.8149 11.459338 -4.41 57.3042 11.459338 0.004
GW 224 38 -4.41 -8.8149 11.900081 -4.41 57.3042 11.900081 0.004
GW 225 38 -4.41 -8.8149 12.340824 -4.41 57.3042 12.340824 0.004
GW 226 38 -4.41 -8.8149 12.781566 -4.41 57.3042 12.781566 0.004
GW 227 38 -4.41 -8.8149 13.222309 -4.41 57.3042 13.222309 0.004
GW 228 38 -4.41 -8.8149 13.663051 -4.41 57.3042 13.663051 0.004
GW 229 38 -4.41 -8.8149 14.103794 -4.41 57.3042 14.103794 0.004
GW 230 38 -4.41 -8.8149 14.544537 -4.41 57.3042 14.544537 0.004
GW 231 38 -4.41 -8.8149 14.985279 -4.41 57.3042 14.985279 0.004
GW 232 38 -4.41 -8.8149 15.426022 -4.41 57.3042 15.426022 0.004
GW 233 38 -4.41 -8.8149 15.866765 -4.41 57.3042 15.866765 0.004
GW 234 38 -4.41 -8.8149 16.307507 -4.41 57.3042 16.307507 0.004
GW 235 38 -4.41 -8.8149 16.74825 -4.41 57.3042 16.74825 0.004
GW 236 38 -4.41 -8.8149 17.188993 -4.41 57.3042 17.188993 0.004
GW 237 38 -4.41 -8.8149 17.629735 -4.41 57.3042 17.629735 0.004
GW 238 38 -4.41 -8.8149 18.070478 -4.41 57.3042 18.070478 0.004
GW 239 38 -4.41 -8.8149 18.511221 -4.41 57.3042 18.511221 0.004
GW 240 38 -4.41 -8.8149 18.951963 -4.41 57.3042 18.951963 0.004
GW 241 38 -4.41 -8.8149 19.392706 -4.41 57.3042 19.392706 0.004
GW 242 38 -4.41 -8.8149 19.833449 -4.41 57.3042 19.833449 0.004
GW 243 38 -4.41 -8.8149 20.274191 -4.41 57.3042 20.274191 0.004
GW 244 38 -4.41 -8.8149 20.714934 -4.41 57.3042 20.714934 0.004
GW 245 38 -4.41 -8.8149 21.155676 -4.41 57.3042 21.155676 0.004
GW 246 38 -4.41 -8.8149 21.596419 -4.41 57.3042 21.596419 0.004
GW 247 38 -4.41 -8.8149 22.037162 -4.41 57.3042 22.037162 0.004
GW 248 38 -4.41 -8.8149 22.477904 -4.41 57.3042 22.477904 0.004
GW 249 38 -4.41 -8.8149 22.918647 -4.41 57.3042 22.918647 0.004
GW 250 38 -4.41 -8.8149 23.35939 -4.41 57.3042 23.35939 0.004
GW 251 38 -4.41 -8.8149 23.800132 -4.41 57.3042 23.800132 0.004
GW 252 38 -4.41 -8.8149 24.240875 -4.41 57.3042 24.240875 0.004
GW 253 38 -4.41 -8.8149 24.681618 -4.41 57.3042 24.681618 0.004
GW 254 38 -4.41 -8.8149 25.12236 -4.41 57.3042 25.12236 0.004
GW 255 38 -4.41 -8.8149 25.563103 -4.41 57.3042 25.563103 0.004
GW 256 38 -4.41 -8.8149 26.003846 -4.41 57.3042 26.003846 0.004
GW 257 38 -4.41 -8.8149 26.444588 -4.41 57.3042 26.444588 0.004
GW 258 38 -4.41 -8.8149 26.885331 -4.41 57.3042 26.885331 0.004
GW 259 38 -4.41 -8.8149 27.326074 -4.41 57.3042 27.326074 0.004
GW 260 38 -4.41 -8.8149 27.766816 -4.41 57.3042 27.766816 0.004
GW 261 38 -4.41 -8.8149 28.207559 -4.41 57.3042 28.207559 0.004
GW 262 38 -4.41 -8.8149 28.648301 -4.41 57.3042 28.648301 0.004
GW 263 38 -4.41 -8.8149 29.089044 -4.41 57.3042 29.089044 0.004
GW 264 38 -4.41 -8.8149 29.529787 -4.41 57.3042 29.529787 0.004
GW 265 38 -4.41 -8.8149 29.970529 -4.41 57.3042 29.970529 0.004
GW 266 38 -4.41 -8.8149 30.411272 -4.41 57.3042 30.411272 0.004
GW 267 38 -4.41 -8.8149 30.852015 -4.41 57.3042 30.852015 0.004
GW 268 38 -4.41 -8.8149 31.292757 -4.41 57.3042 31.292757 0.004
GW 269 38 -4.41 -8.8149 31.7335 -4.41 57.3042 31.7335 0.004
GW 270 38 -4.41 -8.8149 32.174243 -4.41 57.3042 32.174243 0.004
GW 271 38 -4.41 -8.8149 32.614985 -4.41 57.3042 32.614985 0.004
GW 272 38 -4.41 -8.8149 33.055728 -4.41 57.3042 33.055728 0.004
GW 273 38 -4.41 -8.8149 33.496471 -4.41 57.3042 33.496471 0.004
GW 274 38 -4.41 -8.8149 33.937213 -4.41 57.3042 33.937213 0.004
GW 275 38 -4.41 -8.8149 34.377956 -4.41 57.3042 34.377956 0.004
GW 276 38 -4.41 -8.8149 34.818699 -4.41 57.3042 34.818699 0.004
GW 277 38 -4.41 -8.8149 35.259441 -4.41 57.3042 35.259441 0.004
GW 278 38 -4.41 -8.8149 35.700184 -4.41 57.3042 35.700184 0.004
GW 279 38 -4.41 -8.8149 36.140926 -4.41 57.3042 36.140926 0.004
GW 280 38 -4.41 -8.8149 36.581669 -4.41 57.3042 36.581669 0.004
GW 401 79 -4.41 -8.8149 36.581669 -4.41 -8.8149 1.763 0.004
GW 801 1 -4.41 -8.8149 1.763 -4.41 -8.8149 0 0.004
GW 402 79 -4.41 24.24465 36.581669 -4.41 24.24465 1.763 0.004
GW 802 1 -4.41 24.24465 1.763 -4.41 24.24465 0 0.004
GW 403 79 -4.41 57.3042 36.581669 -4.41 57.3042 1.763 0.004
GW 803 1 -4.41 57.3042 1.763 -4.41 57.3042 0 0.004
GE 1
EK
TL 101 5 102 5 -50 11
TL 101 5 103 5 -50 11
TL 101 5 104 5 -50 11
TL 101 5 105 5 -50 11
TL 101 5 106 5 -50 11
TL 101 5 107 5 -50 11
TL 101 5 108 5 -50 11
TL 101 5 109 5 -50 11
TL 101 5 110 5 -50 11
TL 101 5 111 5 -50 11
TL 101 5 112 5 -50 11
LD 5 0 0 0 3.8E7 0
EX 0 101 5 0 1 0
GN 2 0 0 0 13 0.005
FR 0 1 0 0 17.0 0
RP 0 91 360 1001 0. 0. 1. 1.
