CM Curtain Antenna with Aperiodic Screen Reflector ([201] Centre-fed at 17.0 MHz - Aperiodic Screen Reflector) -- AHRS-4-1-0.5
CM - - - created by 'The I.T.S. S.A.G. ver 0.80' on Mon Sep 23 09:37:25 2013
CM  - Wires 101-199 = Array Elements
CM  - Wires 201-399 = Horizontal Screen Elements
CM  - Wires 401-499 = Vertical Screen Elements
CM  - Wires 801-899 = 'Legs' for Vertical Screen Elements
CE
GW 101 9 0.0 0.0 8.814853 0.0 8.814853 8.814853 0.004
GW 102 9 0.0 13.222279 8.814853 0.0 22.037132 8.814853 0.004
GW 103 9 0.0 26.444559 8.814853 0.0 35.259412 8.814853 0.004
GW 104 9 0.0 39.666838 8.814853 0.0 48.481691 8.814853 0.004
GW 201 38 -4.41 -8.8149 1.763 -4.41 57.3042 1.763 0.004
GW 202 38 -4.41 -8.8149 2.203743 -4.41 57.3042 2.203743 0.004
GW 203 38 -4.41 -8.8149 2.644485 -4.41 57.3042 2.644485 0.004
GW 204 38 -4.41 -8.8149 3.085228 -4.41 57.3042 3.085228 0.004
GW 205 38 -4.41 -8.8149 3.525971 -4.41 57.3042 3.525971 0.004
GW 206 38 -4.41 -8.8149 3.966713 -4.41 57.3042 3.966713 0.004
GW 207 38 -4.41 -8.8149 4.407456 -4.41 57.3042 4.407456 0.004
GW 208 38 -4.41 -8.8149 4.848199 -4.41 57.3042 4.848199 0.004
GW 209 38 -4.41 -8.8149 5.288941 -4.41 57.3042 5.288941 0.004
GW 210 38 -4.41 -8.8149 5.729684 -4.41 57.3042 5.729684 0.004
GW 211 38 -4.41 -8.8149 6.170426 -4.41 57.3042 6.170426 0.004
GW 212 38 -4.41 -8.8149 6.611169 -4.41 57.3042 6.611169 0.004
GW 213 38 -4.41 -8.8149 7.051912 -4.41 57.3042 7.051912 0.004
GW 214 38 -4.41 -8.8149 7.492654 -4.41 57.3042 7.492654 0.004
GW 215 38 -4.41 -8.8149 7.933397 -4.41 57.3042 7.933397 0.004
GW 216 38 -4.41 -8.8149 8.37414 -4.41 57.3042 8.37414 0.004
GW 217 38 -4.41 -8.8149 8.814882 -4.41 57.3042 8.814882 0.004
GW 218 38 -4.41 -8.8149 9.255625 -4.41 57.3042 9.255625 0.004
GW 219 38 -4.41 -8.8149 9.696368 -4.41 57.3042 9.696368 0.004
GW 220 38 -4.41 -8.8149 10.13711 -4.41 57.3042 10.13711 0.004
GW 221 38 -4.41 -8.8149 10.577853 -4.41 57.3042 10.577853 0.004
GW 222 38 -4.41 -8.8149 11.018596 -4.41 57.3042 11.018596 0.004
GW 223 38 -4.41 -8.8149 11.459338 -4.41 57.3042 11.459338 0.004
GW 224 38 -4.41 -8.8149 11.900081 -4.41 57.3042 11.900081 0.004
GW 225 38 -4.41 -8.8149 12.340824 -4.41 57.3042 12.340824 0.004
GW 226 38 -4.41 -8.8149 12.781566 -4.41 57.3042 12.781566 0.004
GW 227 38 -4.41 -8.8149 13.222309 -4.41 57.3042 13.222309 0.004
GW 228 38 -4.41 -8.8149 13.663051 -4.41 57.3042 13.663051 0.004
GW 229 38 -4.41 -8.8149 14.103794 -4.41 57.3042 14.103794 0.004
GW 230 38 -4.41 -8.8149 14.544537 -4.41 57.3042 14.544537 0.004
GW 231 38 -4.41 -8.8149 14.985279 -4.41 57.3042 14.985279 0.004
GW 232 38 -4.41 -8.8149 15.426022 -4.41 57.3042 15.426022 0.004
GW 233 38 -4.41 -8.8149 15.866765 -4.41 57.3042 15.866765 0.004
GW 234 38 -4.41 -8.8149 16.307507 -4.41 57.3042 16.307507 0.004
GW 235 38 -4.41 -8.8149 16.74825 -4.41 57.3042 16.74825 0.004
GW 236 38 -4.41 -8.8149 17.188993 -4.41 57.3042 17.188993 0.004
GW 237 38 -4.41 -8.8149 17.629735 -4.41 57.3042 17.629735 0.004
GW 238 38 -4.41 -8.8149 18.070478 -4.41 57.3042 18.070478 0.004
GW 239 38 -4.41 -8.8149 18.511221 -4.41 57.3042 18.511221 0.004
GW 240 38 -4.41 -8.8149 18.951963 -4.41 57.3042 18.951963 0.004
GW 401 39 -4.41 -8.8149 18.951963 -4.41 -8.8149 1.763 0.004
GW 801 1 -4.41 -8.8149 1.763 -4.41 -8.8149 0 0.004
GW 402 39 -4.41 24.24465 18.951963 -4.41 24.24465 1.763 0.004
GW 802 1 -4.41 24.24465 1.763 -4.41 24.24465 0 0.004
GW 403 39 -4.41 57.3042 18.951963 -4.41 57.3042 1.763 0.004
GW 803 1 -4.41 57.3042 1.763 -4.41 57.3042 0 0.004
GE 1
EK
TL 101 5 102 5 -50 9
TL 101 5 103 5 -50 9
TL 101 5 104 5 -50 9
LD 5 0 0 0 3.8E7 0
EX 0 101 5 0 1 0
GN 2 0 0 0 13 0.005
FR 0 1 0 0 17.0 0
RP 0 91 360 1001 0. 0. 1. 1.
