CM Curtain Antenna with Aperiodic Screen Reflector ([206] Centre-fed at 25.0 MHz - Aperiodic Screen Reflector) -- AHRS-4-2-0.5
CM - - - created by 'The I.T.S. S.A.G. ver 0.80' on Mon Sep 23 09:37:25 2013
CM  - Wires 101-199 = Array Elements
CM  - Wires 201-399 = Horizontal Screen Elements
CM  - Wires 401-499 = Vertical Screen Elements
CM  - Wires 801-899 = 'Legs' for Vertical Screen Elements
CE
GW 101 9 0.0 0.0 5.9941 0.0 5.9941 5.9941 0.004
GW 102 9 0.0 8.99115 5.9941 0.0 14.98525 5.9941 0.004
GW 103 9 0.0 17.9823 5.9941 0.0 23.9764 5.9941 0.004
GW 104 9 0.0 26.97345 5.9941 0.0 32.96755 5.9941 0.004
GW 105 9 0.0 0.0 11.9882 0.0 5.9941 11.9882 0.004
GW 106 9 0.0 8.99115 11.9882 0.0 14.98525 11.9882 0.004
GW 107 9 0.0 17.9823 11.9882 0.0 23.9764 11.9882 0.004
GW 108 9 0.0 26.97345 11.9882 0.0 32.96755 11.9882 0.004
GW 201 38 -3.0 -5.9941 1.1988 -3.0 38.9705 1.1988 0.004
GW 202 38 -3.0 -5.9941 1.498505 -3.0 38.9705 1.498505 0.004
GW 203 38 -3.0 -5.9941 1.79821 -3.0 38.9705 1.79821 0.004
GW 204 38 -3.0 -5.9941 2.097915 -3.0 38.9705 2.097915 0.004
GW 205 38 -3.0 -5.9941 2.39762 -3.0 38.9705 2.39762 0.004
GW 206 38 -3.0 -5.9941 2.697325 -3.0 38.9705 2.697325 0.004
GW 207 38 -3.0 -5.9941 2.99703 -3.0 38.9705 2.99703 0.004
GW 208 38 -3.0 -5.9941 3.296735 -3.0 38.9705 3.296735 0.004
GW 209 38 -3.0 -5.9941 3.59644 -3.0 38.9705 3.59644 0.004
GW 210 38 -3.0 -5.9941 3.896145 -3.0 38.9705 3.896145 0.004
GW 211 38 -3.0 -5.9941 4.19585 -3.0 38.9705 4.19585 0.004
GW 212 38 -3.0 -5.9941 4.495555 -3.0 38.9705 4.495555 0.004
GW 213 38 -3.0 -5.9941 4.79526 -3.0 38.9705 4.79526 0.004
GW 214 38 -3.0 -5.9941 5.094965 -3.0 38.9705 5.094965 0.004
GW 215 38 -3.0 -5.9941 5.39467 -3.0 38.9705 5.39467 0.004
GW 216 38 -3.0 -5.9941 5.694375 -3.0 38.9705 5.694375 0.004
GW 217 38 -3.0 -5.9941 5.99408 -3.0 38.9705 5.99408 0.004
GW 218 38 -3.0 -5.9941 6.293785 -3.0 38.9705 6.293785 0.004
GW 219 38 -3.0 -5.9941 6.59349 -3.0 38.9705 6.59349 0.004
GW 220 38 -3.0 -5.9941 6.893195 -3.0 38.9705 6.893195 0.004
GW 221 38 -3.0 -5.9941 7.1929 -3.0 38.9705 7.1929 0.004
GW 222 38 -3.0 -5.9941 7.492605 -3.0 38.9705 7.492605 0.004
GW 223 38 -3.0 -5.9941 7.79231 -3.0 38.9705 7.79231 0.004
GW 224 38 -3.0 -5.9941 8.092015 -3.0 38.9705 8.092015 0.004
GW 225 38 -3.0 -5.9941 8.39172 -3.0 38.9705 8.39172 0.004
GW 226 38 -3.0 -5.9941 8.691425 -3.0 38.9705 8.691425 0.004
GW 227 38 -3.0 -5.9941 8.99113 -3.0 38.9705 8.99113 0.004
GW 228 38 -3.0 -5.9941 9.290835 -3.0 38.9705 9.290835 0.004
GW 229 38 -3.0 -5.9941 9.59054 -3.0 38.9705 9.59054 0.004
GW 230 38 -3.0 -5.9941 9.890245 -3.0 38.9705 9.890245 0.004
GW 231 38 -3.0 -5.9941 10.18995 -3.0 38.9705 10.18995 0.004
GW 232 38 -3.0 -5.9941 10.489655 -3.0 38.9705 10.489655 0.004
GW 233 38 -3.0 -5.9941 10.78936 -3.0 38.9705 10.78936 0.004
GW 234 38 -3.0 -5.9941 11.089065 -3.0 38.9705 11.089065 0.004
GW 235 38 -3.0 -5.9941 11.38877 -3.0 38.9705 11.38877 0.004
GW 236 38 -3.0 -5.9941 11.688475 -3.0 38.9705 11.688475 0.004
GW 237 38 -3.0 -5.9941 11.98818 -3.0 38.9705 11.98818 0.004
GW 238 38 -3.0 -5.9941 12.287885 -3.0 38.9705 12.287885 0.004
GW 239 38 -3.0 -5.9941 12.58759 -3.0 38.9705 12.58759 0.004
GW 240 38 -3.0 -5.9941 12.887295 -3.0 38.9705 12.887295 0.004
GW 241 38 -3.0 -5.9941 13.187 -3.0 38.9705 13.187 0.004
GW 242 38 -3.0 -5.9941 13.486705 -3.0 38.9705 13.486705 0.004
GW 243 38 -3.0 -5.9941 13.78641 -3.0 38.9705 13.78641 0.004
GW 244 38 -3.0 -5.9941 14.086115 -3.0 38.9705 14.086115 0.004
GW 245 38 -3.0 -5.9941 14.38582 -3.0 38.9705 14.38582 0.004
GW 246 38 -3.0 -5.9941 14.685525 -3.0 38.9705 14.685525 0.004
GW 247 38 -3.0 -5.9941 14.98523 -3.0 38.9705 14.98523 0.004
GW 248 38 -3.0 -5.9941 15.284935 -3.0 38.9705 15.284935 0.004
GW 249 38 -3.0 -5.9941 15.58464 -3.0 38.9705 15.58464 0.004
GW 250 38 -3.0 -5.9941 15.884345 -3.0 38.9705 15.884345 0.004
GW 251 38 -3.0 -5.9941 16.18405 -3.0 38.9705 16.18405 0.004
GW 252 38 -3.0 -5.9941 16.483755 -3.0 38.9705 16.483755 0.004
GW 253 38 -3.0 -5.9941 16.78346 -3.0 38.9705 16.78346 0.004
GW 254 38 -3.0 -5.9941 17.083165 -3.0 38.9705 17.083165 0.004
GW 255 38 -3.0 -5.9941 17.38287 -3.0 38.9705 17.38287 0.004
GW 256 38 -3.0 -5.9941 17.682575 -3.0 38.9705 17.682575 0.004
GW 257 38 -3.0 -5.9941 17.98228 -3.0 38.9705 17.98228 0.004
GW 258 38 -3.0 -5.9941 18.281985 -3.0 38.9705 18.281985 0.004
GW 259 38 -3.0 -5.9941 18.58169 -3.0 38.9705 18.58169 0.004
GW 260 38 -3.0 -5.9941 18.881395 -3.0 38.9705 18.881395 0.004
GW 401 59 -3.0 -5.9941 18.881395 -3.0 -5.9941 1.1988 0.004
GW 801 1 -3.0 -5.9941 1.1988 -3.0 -5.9941 0 0.004
GW 402 59 -3.0 16.4882 18.881395 -3.0 16.4882 1.1988 0.004
GW 802 1 -3.0 16.4882 1.1988 -3.0 16.4882 0 0.004
GW 403 59 -3.0 38.9705 18.881395 -3.0 38.9705 1.1988 0.004
GW 803 1 -3.0 38.9705 1.1988 -3.0 38.9705 0 0.004
GE 1
EK
TL 101 5 102 5 -50 9
TL 101 5 103 5 -50 9
TL 101 5 104 5 -50 9
TL 101 5 105 5 -50 9
TL 101 5 106 5 -50 9
TL 101 5 107 5 -50 9
TL 101 5 108 5 -50 9
LD 5 0 0 0 3.8E7 0
EX 0 101 5 0 1 0
GN 2 0 0 0 13 0.005
FR 0 1 0 0 25.0 0
RP 0 91 360 1001 0. 0. 1. 1.
