CM Curtain Antenna with Aperiodic Screen Reflector ([141] Centre-fed at 16.0 MHz - Aperiodic Screen Reflector) -- AHRS-2-1-0.5
CM - - - created by 'The I.T.S. S.A.G. ver 0.80' on Mon Sep 23 09:37:25 2013
CM  - Wires 101-199 = Array Elements
CM  - Wires 201-399 = Horizontal Screen Elements
CM  - Wires 401-499 = Vertical Screen Elements
CM  - Wires 801-899 = 'Legs' for Vertical Screen Elements
CE
GW 101 9 0.0 0.0 9.365781 0.0 9.365781 9.365781 0.004
GW 102 9 0.0 14.048672 9.365781 0.0 23.414453 9.365781 0.004
GW 201 24 -4.68 -9.3658 1.8732 -4.68 32.7773 1.8732 0.004
GW 202 24 -4.68 -9.3658 2.341489 -4.68 32.7773 2.341489 0.004
GW 203 24 -4.68 -9.3658 2.809778 -4.68 32.7773 2.809778 0.004
GW 204 24 -4.68 -9.3658 3.278067 -4.68 32.7773 3.278067 0.004
GW 205 24 -4.68 -9.3658 3.746356 -4.68 32.7773 3.746356 0.004
GW 206 24 -4.68 -9.3658 4.214645 -4.68 32.7773 4.214645 0.004
GW 207 24 -4.68 -9.3658 4.682934 -4.68 32.7773 4.682934 0.004
GW 208 24 -4.68 -9.3658 5.151223 -4.68 32.7773 5.151223 0.004
GW 209 24 -4.68 -9.3658 5.619512 -4.68 32.7773 5.619512 0.004
GW 210 24 -4.68 -9.3658 6.087802 -4.68 32.7773 6.087802 0.004
GW 211 24 -4.68 -9.3658 6.556091 -4.68 32.7773 6.556091 0.004
GW 212 24 -4.68 -9.3658 7.02438 -4.68 32.7773 7.02438 0.004
GW 213 24 -4.68 -9.3658 7.492669 -4.68 32.7773 7.492669 0.004
GW 214 24 -4.68 -9.3658 7.960958 -4.68 32.7773 7.960958 0.004
GW 215 24 -4.68 -9.3658 8.429247 -4.68 32.7773 8.429247 0.004
GW 216 24 -4.68 -9.3658 8.897536 -4.68 32.7773 8.897536 0.004
GW 217 24 -4.68 -9.3658 9.365825 -4.68 32.7773 9.365825 0.004
GW 218 24 -4.68 -9.3658 9.834114 -4.68 32.7773 9.834114 0.004
GW 219 24 -4.68 -9.3658 10.302403 -4.68 32.7773 10.302403 0.004
GW 220 24 -4.68 -9.3658 10.770692 -4.68 32.7773 10.770692 0.004
GW 221 24 -4.68 -9.3658 11.238981 -4.68 32.7773 11.238981 0.004
GW 222 24 -4.68 -9.3658 11.70727 -4.68 32.7773 11.70727 0.004
GW 223 24 -4.68 -9.3658 12.175559 -4.68 32.7773 12.175559 0.004
GW 224 24 -4.68 -9.3658 12.643848 -4.68 32.7773 12.643848 0.004
GW 225 24 -4.68 -9.3658 13.112138 -4.68 32.7773 13.112138 0.004
GW 226 24 -4.68 -9.3658 13.580427 -4.68 32.7773 13.580427 0.004
GW 227 24 -4.68 -9.3658 14.048716 -4.68 32.7773 14.048716 0.004
GW 228 24 -4.68 -9.3658 14.517005 -4.68 32.7773 14.517005 0.004
GW 229 24 -4.68 -9.3658 14.985294 -4.68 32.7773 14.985294 0.004
GW 230 24 -4.68 -9.3658 15.453583 -4.68 32.7773 15.453583 0.004
GW 231 24 -4.68 -9.3658 15.921872 -4.68 32.7773 15.921872 0.004
GW 232 24 -4.68 -9.3658 16.390161 -4.68 32.7773 16.390161 0.004
GW 233 24 -4.68 -9.3658 16.85845 -4.68 32.7773 16.85845 0.004
GW 234 24 -4.68 -9.3658 17.326739 -4.68 32.7773 17.326739 0.004
GW 235 24 -4.68 -9.3658 17.795028 -4.68 32.7773 17.795028 0.004
GW 236 24 -4.68 -9.3658 18.263317 -4.68 32.7773 18.263317 0.004
GW 237 24 -4.68 -9.3658 18.731606 -4.68 32.7773 18.731606 0.004
GW 238 24 -4.68 -9.3658 19.199895 -4.68 32.7773 19.199895 0.004
GW 239 24 -4.68 -9.3658 19.668184 -4.68 32.7773 19.668184 0.004
GW 240 24 -4.68 -9.3658 20.136473 -4.68 32.7773 20.136473 0.004
GW 241 24 -4.68 -9.3658 20.604763 -4.68 32.7773 20.604763 0.004
GW 401 40 -4.68 -9.3658 20.604763 -4.68 -9.3658 1.8732 0.004
GW 801 1 -4.68 -9.3658 1.8732 -4.68 -9.3658 0 0.004
GW 402 40 -4.68 11.70575 20.604763 -4.68 11.70575 1.8732 0.004
GW 802 1 -4.68 11.70575 1.8732 -4.68 11.70575 0 0.004
GW 403 40 -4.68 32.7773 20.604763 -4.68 32.7773 1.8732 0.004
GW 803 1 -4.68 32.7773 1.8732 -4.68 32.7773 0 0.004
GE 1
EK
TL 101 5 102 5 -50 5
LD 5 0 0 0 3.8E7 0
EX 0 101 5 0 1 0
GN 2 0 0 0 13 0.005
FR 0 1 0 0 16.0 0
RP 0 91 360 1001 0. 0. 1. 1.
