CM Curtain Antenna with Aperiodic Screen Reflector ([141] Centre-fed at 24.0 MHz - Aperiodic Screen Reflector) -- AHRS-2-1-0.5
CM - - - created by 'The I.T.S. S.A.G. ver 0.80' on Mon Sep 23 09:37:25 2013
CM  - Wires 101-199 = Array Elements
CM  - Wires 201-399 = Horizontal Screen Elements
CM  - Wires 401-499 = Vertical Screen Elements
CM  - Wires 801-899 = 'Legs' for Vertical Screen Elements
CE
GW 101 9 0.0 0.0 6.243854 0.0 6.243854 6.243854 0.004
GW 102 9 0.0 9.365781 6.243854 0.0 15.609635 6.243854 0.004
GW 201 24 -3.12 -6.2439 1.2488 -3.12 21.8515 1.2488 0.004
GW 202 24 -3.12 -6.2439 1.560993 -3.12 21.8515 1.560993 0.004
GW 203 24 -3.12 -6.2439 1.873185 -3.12 21.8515 1.873185 0.004
GW 204 24 -3.12 -6.2439 2.185378 -3.12 21.8515 2.185378 0.004
GW 205 24 -3.12 -6.2439 2.497571 -3.12 21.8515 2.497571 0.004
GW 206 24 -3.12 -6.2439 2.809764 -3.12 21.8515 2.809764 0.004
GW 207 24 -3.12 -6.2439 3.121956 -3.12 21.8515 3.121956 0.004
GW 208 24 -3.12 -6.2439 3.434149 -3.12 21.8515 3.434149 0.004
GW 209 24 -3.12 -6.2439 3.746342 -3.12 21.8515 3.746342 0.004
GW 210 24 -3.12 -6.2439 4.058534 -3.12 21.8515 4.058534 0.004
GW 211 24 -3.12 -6.2439 4.370727 -3.12 21.8515 4.370727 0.004
GW 212 24 -3.12 -6.2439 4.68292 -3.12 21.8515 4.68292 0.004
GW 213 24 -3.12 -6.2439 4.995113 -3.12 21.8515 4.995113 0.004
GW 214 24 -3.12 -6.2439 5.307305 -3.12 21.8515 5.307305 0.004
GW 215 24 -3.12 -6.2439 5.619498 -3.12 21.8515 5.619498 0.004
GW 216 24 -3.12 -6.2439 5.931691 -3.12 21.8515 5.931691 0.004
GW 217 24 -3.12 -6.2439 6.243883 -3.12 21.8515 6.243883 0.004
GW 218 24 -3.12 -6.2439 6.556076 -3.12 21.8515 6.556076 0.004
GW 219 24 -3.12 -6.2439 6.868269 -3.12 21.8515 6.868269 0.004
GW 220 24 -3.12 -6.2439 7.180461 -3.12 21.8515 7.180461 0.004
GW 221 24 -3.12 -6.2439 7.492654 -3.12 21.8515 7.492654 0.004
GW 222 24 -3.12 -6.2439 7.804847 -3.12 21.8515 7.804847 0.004
GW 223 24 -3.12 -6.2439 8.11704 -3.12 21.8515 8.11704 0.004
GW 224 24 -3.12 -6.2439 8.429232 -3.12 21.8515 8.429232 0.004
GW 225 24 -3.12 -6.2439 8.741425 -3.12 21.8515 8.741425 0.004
GW 226 24 -3.12 -6.2439 9.053618 -3.12 21.8515 9.053618 0.004
GW 227 24 -3.12 -6.2439 9.36581 -3.12 21.8515 9.36581 0.004
GW 228 24 -3.12 -6.2439 9.678003 -3.12 21.8515 9.678003 0.004
GW 229 24 -3.12 -6.2439 9.990196 -3.12 21.8515 9.990196 0.004
GW 230 24 -3.12 -6.2439 10.302389 -3.12 21.8515 10.302389 0.004
GW 231 24 -3.12 -6.2439 10.614581 -3.12 21.8515 10.614581 0.004
GW 232 24 -3.12 -6.2439 10.926774 -3.12 21.8515 10.926774 0.004
GW 233 24 -3.12 -6.2439 11.238967 -3.12 21.8515 11.238967 0.004
GW 234 24 -3.12 -6.2439 11.551159 -3.12 21.8515 11.551159 0.004
GW 235 24 -3.12 -6.2439 11.863352 -3.12 21.8515 11.863352 0.004
GW 236 24 -3.12 -6.2439 12.175545 -3.12 21.8515 12.175545 0.004
GW 237 24 -3.12 -6.2439 12.487737 -3.12 21.8515 12.487737 0.004
GW 238 24 -3.12 -6.2439 12.79993 -3.12 21.8515 12.79993 0.004
GW 239 24 -3.12 -6.2439 13.112123 -3.12 21.8515 13.112123 0.004
GW 240 24 -3.12 -6.2439 13.424316 -3.12 21.8515 13.424316 0.004
GW 401 39 -3.12 -6.2439 13.424316 -3.12 -6.2439 1.2488 0.004
GW 801 1 -3.12 -6.2439 1.2488 -3.12 -6.2439 0 0.004
GW 402 39 -3.12 7.8038 13.424316 -3.12 7.8038 1.2488 0.004
GW 802 1 -3.12 7.8038 1.2488 -3.12 7.8038 0 0.004
GW 403 39 -3.12 21.8515 13.424316 -3.12 21.8515 1.2488 0.004
GW 803 1 -3.12 21.8515 1.2488 -3.12 21.8515 0 0.004
GE 1
EK
TL 101 5 102 5 -50 5
LD 5 0 0 0 3.8E7 0
EX 0 101 5 0 1 0
GN 2 0 0 0 13 0.005
FR 0 1 0 0 24.0 0
RP 0 91 360 1001 0. 0. 1. 1.
