CM Curtain Antenna with Aperiodic Screen Reflector ([217] Centre-fed at 14.0 MHz - Aperiodic Screen Reflector) -- AHRS-4-4-0.8
CM - - - created by 'The I.T.S. S.A.G. ver 0.80' on Mon Sep 23 09:37:25 2013
CM  - Wires 101-199 = Array Elements
CM  - Wires 201-399 = Horizontal Screen Elements
CM  - Wires 401-499 = Vertical Screen Elements
CM  - Wires 801-899 = 'Legs' for Vertical Screen Elements
CE
GW 101 9 0.0 0.0 17.126 0.0 10.70375 17.126 0.004
GW 102 9 0.0 16.055625 17.126 0.0 26.759375 17.126 0.004
GW 103 9 0.0 32.11125 17.126 0.0 42.815 17.126 0.004
GW 104 9 0.0 48.166875 17.126 0.0 58.870625 17.126 0.004
GW 105 9 0.0 0.0 27.82975 0.0 10.70375 27.82975 0.004
GW 106 9 0.0 16.055625 27.82975 0.0 26.759375 27.82975 0.004
GW 107 9 0.0 32.11125 27.82975 0.0 42.815 27.82975 0.004
GW 108 9 0.0 48.166875 27.82975 0.0 58.870625 27.82975 0.004
GW 109 9 0.0 0.0 38.5335 0.0 10.70375 38.5335 0.004
GW 110 9 0.0 16.055625 38.5335 0.0 26.759375 38.5335 0.004
GW 111 9 0.0 32.11125 38.5335 0.0 42.815 38.5335 0.004
GW 112 9 0.0 48.166875 38.5335 0.0 58.870625 38.5335 0.004
GW 113 9 0.0 0.0 49.23725 0.0 10.70375 49.23725 0.004
GW 114 9 0.0 16.055625 49.23725 0.0 26.759375 49.23725 0.004
GW 115 9 0.0 32.11125 49.23725 0.0 42.815 49.23725 0.004
GW 116 9 0.0 48.166875 49.23725 0.0 58.870625 49.23725 0.004
GW 201 38 -5.35 -10.7037 6.4223 -5.35 69.5688 6.4223 0.004
GW 202 38 -5.35 -10.7037 6.957488 -5.35 69.5688 6.957488 0.004
GW 203 38 -5.35 -10.7037 7.492675 -5.35 69.5688 7.492675 0.004
GW 204 38 -5.35 -10.7037 8.027862 -5.35 69.5688 8.027862 0.004
GW 205 38 -5.35 -10.7037 8.56305 -5.35 69.5688 8.56305 0.004
GW 206 38 -5.35 -10.7037 9.098237 -5.35 69.5688 9.098237 0.004
GW 207 38 -5.35 -10.7037 9.633425 -5.35 69.5688 9.633425 0.004
GW 208 38 -5.35 -10.7037 10.168613 -5.35 69.5688 10.168613 0.004
GW 209 38 -5.35 -10.7037 10.7038 -5.35 69.5688 10.7038 0.004
GW 210 38 -5.35 -10.7037 11.238988 -5.35 69.5688 11.238988 0.004
GW 211 38 -5.35 -10.7037 11.774175 -5.35 69.5688 11.774175 0.004
GW 212 38 -5.35 -10.7037 12.309363 -5.35 69.5688 12.309363 0.004
GW 213 38 -5.35 -10.7037 12.84455 -5.35 69.5688 12.84455 0.004
GW 214 38 -5.35 -10.7037 13.379738 -5.35 69.5688 13.379738 0.004
GW 215 38 -5.35 -10.7037 13.914925 -5.35 69.5688 13.914925 0.004
GW 216 38 -5.35 -10.7037 14.450113 -5.35 69.5688 14.450113 0.004
GW 217 38 -5.35 -10.7037 14.9853 -5.35 69.5688 14.9853 0.004
GW 218 38 -5.35 -10.7037 15.520487 -5.35 69.5688 15.520487 0.004
GW 219 38 -5.35 -10.7037 16.055675 -5.35 69.5688 16.055675 0.004
GW 220 38 -5.35 -10.7037 16.590863 -5.35 69.5688 16.590863 0.004
GW 221 38 -5.35 -10.7037 17.12605 -5.35 69.5688 17.12605 0.004
GW 222 38 -5.35 -10.7037 17.661237 -5.35 69.5688 17.661237 0.004
GW 223 38 -5.35 -10.7037 18.196425 -5.35 69.5688 18.196425 0.004
GW 224 38 -5.35 -10.7037 18.731613 -5.35 69.5688 18.731613 0.004
GW 225 38 -5.35 -10.7037 19.2668 -5.35 69.5688 19.2668 0.004
GW 226 38 -5.35 -10.7037 19.801988 -5.35 69.5688 19.801988 0.004
GW 227 38 -5.35 -10.7037 20.337175 -5.35 69.5688 20.337175 0.004
GW 228 38 -5.35 -10.7037 20.872363 -5.35 69.5688 20.872363 0.004
GW 229 38 -5.35 -10.7037 21.40755 -5.35 69.5688 21.40755 0.004
GW 230 38 -5.35 -10.7037 21.942737 -5.35 69.5688 21.942737 0.004
GW 231 38 -5.35 -10.7037 22.477925 -5.35 69.5688 22.477925 0.004
GW 232 38 -5.35 -10.7037 23.013113 -5.35 69.5688 23.013113 0.004
GW 233 38 -5.35 -10.7037 23.5483 -5.35 69.5688 23.5483 0.004
GW 234 38 -5.35 -10.7037 24.083488 -5.35 69.5688 24.083488 0.004
GW 235 38 -5.35 -10.7037 24.618675 -5.35 69.5688 24.618675 0.004
GW 236 38 -5.35 -10.7037 25.153863 -5.35 69.5688 25.153863 0.004
GW 237 38 -5.35 -10.7037 25.68905 -5.35 69.5688 25.68905 0.004
GW 238 38 -5.35 -10.7037 26.224238 -5.35 69.5688 26.224238 0.004
GW 239 38 -5.35 -10.7037 26.759425 -5.35 69.5688 26.759425 0.004
GW 240 38 -5.35 -10.7037 27.294613 -5.35 69.5688 27.294613 0.004
GW 241 38 -5.35 -10.7037 27.8298 -5.35 69.5688 27.8298 0.004
GW 242 38 -5.35 -10.7037 28.364988 -5.35 69.5688 28.364988 0.004
GW 243 38 -5.35 -10.7037 28.900175 -5.35 69.5688 28.900175 0.004
GW 244 38 -5.35 -10.7037 29.435363 -5.35 69.5688 29.435363 0.004
GW 245 38 -5.35 -10.7037 29.97055 -5.35 69.5688 29.97055 0.004
GW 246 38 -5.35 -10.7037 30.505738 -5.35 69.5688 30.505738 0.004
GW 247 38 -5.35 -10.7037 31.040925 -5.35 69.5688 31.040925 0.004
GW 248 38 -5.35 -10.7037 31.576113 -5.35 69.5688 31.576113 0.004
GW 249 38 -5.35 -10.7037 32.1113 -5.35 69.5688 32.1113 0.004
GW 250 38 -5.35 -10.7037 32.646488 -5.35 69.5688 32.646488 0.004
GW 251 38 -5.35 -10.7037 33.181675 -5.35 69.5688 33.181675 0.004
GW 252 38 -5.35 -10.7037 33.716863 -5.35 69.5688 33.716863 0.004
GW 253 38 -5.35 -10.7037 34.25205 -5.35 69.5688 34.25205 0.004
GW 254 38 -5.35 -10.7037 34.787238 -5.35 69.5688 34.787238 0.004
GW 255 38 -5.35 -10.7037 35.322425 -5.35 69.5688 35.322425 0.004
GW 256 38 -5.35 -10.7037 35.857613 -5.35 69.5688 35.857613 0.004
GW 257 38 -5.35 -10.7037 36.3928 -5.35 69.5688 36.3928 0.004
GW 258 38 -5.35 -10.7037 36.927988 -5.35 69.5688 36.927988 0.004
GW 259 38 -5.35 -10.7037 37.463175 -5.35 69.5688 37.463175 0.004
GW 260 38 -5.35 -10.7037 37.998362 -5.35 69.5688 37.998362 0.004
GW 261 38 -5.35 -10.7037 38.53355 -5.35 69.5688 38.53355 0.004
GW 262 38 -5.35 -10.7037 39.068738 -5.35 69.5688 39.068738 0.004
GW 263 38 -5.35 -10.7037 39.603925 -5.35 69.5688 39.603925 0.004
GW 264 38 -5.35 -10.7037 40.139113 -5.35 69.5688 40.139113 0.004
GW 265 38 -5.35 -10.7037 40.6743 -5.35 69.5688 40.6743 0.004
GW 266 38 -5.35 -10.7037 41.209488 -5.35 69.5688 41.209488 0.004
GW 267 38 -5.35 -10.7037 41.744675 -5.35 69.5688 41.744675 0.004
GW 268 38 -5.35 -10.7037 42.279863 -5.35 69.5688 42.279863 0.004
GW 269 38 -5.35 -10.7037 42.81505 -5.35 69.5688 42.81505 0.004
GW 270 38 -5.35 -10.7037 43.350238 -5.35 69.5688 43.350238 0.004
GW 271 38 -5.35 -10.7037 43.885425 -5.35 69.5688 43.885425 0.004
GW 272 38 -5.35 -10.7037 44.420613 -5.35 69.5688 44.420613 0.004
GW 273 38 -5.35 -10.7037 44.9558 -5.35 69.5688 44.9558 0.004
GW 274 38 -5.35 -10.7037 45.490988 -5.35 69.5688 45.490988 0.004
GW 275 38 -5.35 -10.7037 46.026175 -5.35 69.5688 46.026175 0.004
GW 276 38 -5.35 -10.7037 46.561363 -5.35 69.5688 46.561363 0.004
GW 277 38 -5.35 -10.7037 47.09655 -5.35 69.5688 47.09655 0.004
GW 278 38 -5.35 -10.7037 47.631737 -5.35 69.5688 47.631737 0.004
GW 279 38 -5.35 -10.7037 48.166925 -5.35 69.5688 48.166925 0.004
GW 280 38 -5.35 -10.7037 48.702113 -5.35 69.5688 48.702113 0.004
GW 281 38 -5.35 -10.7037 49.2373 -5.35 69.5688 49.2373 0.004
GW 282 38 -5.35 -10.7037 49.772488 -5.35 69.5688 49.772488 0.004
GW 283 38 -5.35 -10.7037 50.307675 -5.35 69.5688 50.307675 0.004
GW 284 38 -5.35 -10.7037 50.842863 -5.35 69.5688 50.842863 0.004
GW 285 38 -5.35 -10.7037 51.37805 -5.35 69.5688 51.37805 0.004
GW 286 38 -5.35 -10.7037 51.913238 -5.35 69.5688 51.913238 0.004
GW 287 38 -5.35 -10.7037 52.448425 -5.35 69.5688 52.448425 0.004
GW 288 38 -5.35 -10.7037 52.983613 -5.35 69.5688 52.983613 0.004
GW 289 38 -5.35 -10.7037 53.5188 -5.35 69.5688 53.5188 0.004
GW 290 38 -5.35 -10.7037 54.053988 -5.35 69.5688 54.053988 0.004
GW 291 38 -5.35 -10.7037 54.589175 -5.35 69.5688 54.589175 0.004
GW 292 38 -5.35 -10.7037 55.124363 -5.35 69.5688 55.124363 0.004
GW 293 38 -5.35 -10.7037 55.65955 -5.35 69.5688 55.65955 0.004
GW 294 38 -5.35 -10.7037 56.194738 -5.35 69.5688 56.194738 0.004
GW 295 38 -5.35 -10.7037 56.729925 -5.35 69.5688 56.729925 0.004
GW 296 38 -5.35 -10.7037 57.265113 -5.35 69.5688 57.265113 0.004
GW 297 38 -5.35 -10.7037 57.8003 -5.35 69.5688 57.8003 0.004
GW 298 38 -5.35 -10.7037 58.335488 -5.35 69.5688 58.335488 0.004
GW 299 38 -5.35 -10.7037 58.870675 -5.35 69.5688 58.870675 0.004
GW 300 38 -5.35 -10.7037 59.405863 -5.35 69.5688 59.405863 0.004
GW 401 99 -5.35 -10.7037 59.405863 -5.35 -10.7037 6.4223 0.004
GW 801 4 -5.35 -10.7037 6.4223 -5.35 -10.7037 0 0.004
GW 402 99 -5.35 29.43255 59.405863 -5.35 29.43255 6.4223 0.004
GW 802 4 -5.35 29.43255 6.4223 -5.35 29.43255 0 0.004
GW 403 99 -5.35 69.5688 59.405863 -5.35 69.5688 6.4223 0.004
GW 803 4 -5.35 69.5688 6.4223 -5.35 69.5688 0 0.004
GE 1
EK
TL 101 5 102 5 -50 12
TL 101 5 103 5 -50 12
TL 101 5 104 5 -50 12
TL 101 5 105 5 -50 12
TL 101 5 106 5 -50 12
TL 101 5 107 5 -50 12
TL 101 5 108 5 -50 12
TL 101 5 109 5 -50 12
TL 101 5 110 5 -50 12
TL 101 5 111 5 -50 12
TL 101 5 112 5 -50 12
TL 101 5 113 5 -50 12
TL 101 5 114 5 -50 12
TL 101 5 115 5 -50 12
TL 101 5 116 5 -50 12
LD 5 0 0 0 3.8E7 0
EX 0 101 5 0 1 0
GN 2 0 0 0 13 0.005
FR 0 1 0 0 14.0 0
RP 0 91 360 1001 0. 0. 1. 1.
