CM Curtain Antenna with Aperiodic Screen Reflector ([208] Centre-fed at 7.0 MHz - Aperiodic Screen Reflector) -- AHRS-4-2-1.0
CM - - - created by 'The I.T.S. S.A.G. ver 0.80' on Mon Sep 23 09:37:25 2013
CM  - Wires 101-199 = Array Elements
CM  - Wires 201-399 = Horizontal Screen Elements
CM  - Wires 401-499 = Vertical Screen Elements
CM  - Wires 801-899 = 'Legs' for Vertical Screen Elements
CE
GW 101 9 0.0 0.0 42.815 0.0 21.4075 42.815 0.004
GW 102 9 0.0 32.11125 42.815 0.0 53.51875 42.815 0.004
GW 103 9 0.0 64.2225 42.815 0.0 85.63 42.815 0.004
GW 104 9 0.0 96.33375 42.815 0.0 117.74125 42.815 0.004
GW 105 9 0.0 0.0 64.2225 0.0 21.4075 64.2225 0.004
GW 106 9 0.0 32.11125 64.2225 0.0 53.51875 64.2225 0.004
GW 107 9 0.0 64.2225 64.2225 0.0 85.63 64.2225 0.004
GW 108 9 0.0 96.33375 64.2225 0.0 117.74125 64.2225 0.004
GW 201 38 -10.7 -21.4075 21.4075 -10.7 139.1375 21.4075 0.004
GW 202 38 -10.7 -21.4075 22.477875 -10.7 139.1375 22.477875 0.004
GW 203 38 -10.7 -21.4075 23.54825 -10.7 139.1375 23.54825 0.004
GW 204 38 -10.7 -21.4075 24.618625 -10.7 139.1375 24.618625 0.004
GW 205 38 -10.7 -21.4075 25.689 -10.7 139.1375 25.689 0.004
GW 206 38 -10.7 -21.4075 26.759375 -10.7 139.1375 26.759375 0.004
GW 207 38 -10.7 -21.4075 27.82975 -10.7 139.1375 27.82975 0.004
GW 208 38 -10.7 -21.4075 28.900125 -10.7 139.1375 28.900125 0.004
GW 209 38 -10.7 -21.4075 29.9705 -10.7 139.1375 29.9705 0.004
GW 210 38 -10.7 -21.4075 31.040875 -10.7 139.1375 31.040875 0.004
GW 211 38 -10.7 -21.4075 32.11125 -10.7 139.1375 32.11125 0.004
GW 212 38 -10.7 -21.4075 33.181625 -10.7 139.1375 33.181625 0.004
GW 213 38 -10.7 -21.4075 34.252 -10.7 139.1375 34.252 0.004
GW 214 38 -10.7 -21.4075 35.322375 -10.7 139.1375 35.322375 0.004
GW 215 38 -10.7 -21.4075 36.39275 -10.7 139.1375 36.39275 0.004
GW 216 38 -10.7 -21.4075 37.463125 -10.7 139.1375 37.463125 0.004
GW 217 38 -10.7 -21.4075 38.5335 -10.7 139.1375 38.5335 0.004
GW 218 38 -10.7 -21.4075 39.603875 -10.7 139.1375 39.603875 0.004
GW 219 38 -10.7 -21.4075 40.67425 -10.7 139.1375 40.67425 0.004
GW 220 38 -10.7 -21.4075 41.744625 -10.7 139.1375 41.744625 0.004
GW 221 38 -10.7 -21.4075 42.815 -10.7 139.1375 42.815 0.004
GW 222 38 -10.7 -21.4075 43.885375 -10.7 139.1375 43.885375 0.004
GW 223 38 -10.7 -21.4075 44.95575 -10.7 139.1375 44.95575 0.004
GW 224 38 -10.7 -21.4075 46.026125 -10.7 139.1375 46.026125 0.004
GW 225 38 -10.7 -21.4075 47.0965 -10.7 139.1375 47.0965 0.004
GW 226 38 -10.7 -21.4075 48.166875 -10.7 139.1375 48.166875 0.004
GW 227 38 -10.7 -21.4075 49.23725 -10.7 139.1375 49.23725 0.004
GW 228 38 -10.7 -21.4075 50.307625 -10.7 139.1375 50.307625 0.004
GW 229 38 -10.7 -21.4075 51.378 -10.7 139.1375 51.378 0.004
GW 230 38 -10.7 -21.4075 52.448375 -10.7 139.1375 52.448375 0.004
GW 231 38 -10.7 -21.4075 53.51875 -10.7 139.1375 53.51875 0.004
GW 232 38 -10.7 -21.4075 54.589125 -10.7 139.1375 54.589125 0.004
GW 233 38 -10.7 -21.4075 55.6595 -10.7 139.1375 55.6595 0.004
GW 234 38 -10.7 -21.4075 56.729875 -10.7 139.1375 56.729875 0.004
GW 235 38 -10.7 -21.4075 57.80025 -10.7 139.1375 57.80025 0.004
GW 236 38 -10.7 -21.4075 58.870625 -10.7 139.1375 58.870625 0.004
GW 237 38 -10.7 -21.4075 59.941 -10.7 139.1375 59.941 0.004
GW 238 38 -10.7 -21.4075 61.011375 -10.7 139.1375 61.011375 0.004
GW 239 38 -10.7 -21.4075 62.08175 -10.7 139.1375 62.08175 0.004
GW 240 38 -10.7 -21.4075 63.152125 -10.7 139.1375 63.152125 0.004
GW 241 38 -10.7 -21.4075 64.2225 -10.7 139.1375 64.2225 0.004
GW 242 38 -10.7 -21.4075 65.292875 -10.7 139.1375 65.292875 0.004
GW 243 38 -10.7 -21.4075 66.36325 -10.7 139.1375 66.36325 0.004
GW 244 38 -10.7 -21.4075 67.433625 -10.7 139.1375 67.433625 0.004
GW 245 38 -10.7 -21.4075 68.504 -10.7 139.1375 68.504 0.004
GW 246 38 -10.7 -21.4075 69.574375 -10.7 139.1375 69.574375 0.004
GW 247 38 -10.7 -21.4075 70.64475 -10.7 139.1375 70.64475 0.004
GW 248 38 -10.7 -21.4075 71.715125 -10.7 139.1375 71.715125 0.004
GW 249 38 -10.7 -21.4075 72.7855 -10.7 139.1375 72.7855 0.004
GW 250 38 -10.7 -21.4075 73.855875 -10.7 139.1375 73.855875 0.004
GW 251 38 -10.7 -21.4075 74.92625 -10.7 139.1375 74.92625 0.004
GW 252 38 -10.7 -21.4075 75.996625 -10.7 139.1375 75.996625 0.004
GW 253 38 -10.7 -21.4075 77.067 -10.7 139.1375 77.067 0.004
GW 254 38 -10.7 -21.4075 78.137375 -10.7 139.1375 78.137375 0.004
GW 255 38 -10.7 -21.4075 79.20775 -10.7 139.1375 79.20775 0.004
GW 256 38 -10.7 -21.4075 80.278125 -10.7 139.1375 80.278125 0.004
GW 257 38 -10.7 -21.4075 81.3485 -10.7 139.1375 81.3485 0.004
GW 258 38 -10.7 -21.4075 82.418875 -10.7 139.1375 82.418875 0.004
GW 259 38 -10.7 -21.4075 83.48925 -10.7 139.1375 83.48925 0.004
GW 260 38 -10.7 -21.4075 84.559625 -10.7 139.1375 84.559625 0.004
GW 261 38 -10.7 -21.4075 85.63 -10.7 139.1375 85.63 0.004
GW 401 60 -10.7 -21.4075 85.63 -10.7 -21.4075 21.4075 0.004
GW 801 8 -10.7 -21.4075 21.4075 -10.7 -21.4075 0 0.004
GW 402 60 -10.7 58.865 85.63 -10.7 58.865 21.4075 0.004
GW 802 8 -10.7 58.865 21.4075 -10.7 58.865 0 0.004
GW 403 60 -10.7 139.1375 85.63 -10.7 139.1375 21.4075 0.004
GW 803 8 -10.7 139.1375 21.4075 -10.7 139.1375 0 0.004
GE 1
EK
TL 101 5 102 5 -50 9
TL 101 5 103 5 -50 9
TL 101 5 104 5 -50 9
TL 101 5 105 5 -50 9
TL 101 5 106 5 -50 9
TL 101 5 107 5 -50 9
TL 101 5 108 5 -50 9
LD 5 0 0 0 3.8E7 0
EX 0 101 5 0 1 0
GN 2 0 0 0 13 0.005
FR 0 1 0 0 7.0 0
RP 0 91 360 1001 0. 0. 1. 1.
