CM Curtain Antenna with Aperiodic Screen Reflector ([141] Centre-fed at 27.0 MHz - Aperiodic Screen Reflector) -- AHRS-2-1-0.5
CM - - - created by 'The I.T.S. S.A.G. ver 0.80' on Mon Sep 23 09:37:25 2013
CM  - Wires 101-199 = Array Elements
CM  - Wires 201-399 = Horizontal Screen Elements
CM  - Wires 401-499 = Vertical Screen Elements
CM  - Wires 801-899 = 'Legs' for Vertical Screen Elements
CE
GW 101 9 0.0 0.0 5.550093 0.0 5.550093 5.550093 0.004
GW 102 9 0.0 8.325139 5.550093 0.0 13.875231 5.550093 0.004
GW 201 24 -2.78 -5.5501 1.11 -2.78 19.4303 1.11 0.004
GW 202 24 -2.78 -5.5501 1.387505 -2.78 19.4303 1.387505 0.004
GW 203 24 -2.78 -5.5501 1.665009 -2.78 19.4303 1.665009 0.004
GW 204 24 -2.78 -5.5501 1.942514 -2.78 19.4303 1.942514 0.004
GW 205 24 -2.78 -5.5501 2.220019 -2.78 19.4303 2.220019 0.004
GW 206 24 -2.78 -5.5501 2.497523 -2.78 19.4303 2.497523 0.004
GW 207 24 -2.78 -5.5501 2.775028 -2.78 19.4303 2.775028 0.004
GW 208 24 -2.78 -5.5501 3.052532 -2.78 19.4303 3.052532 0.004
GW 209 24 -2.78 -5.5501 3.330037 -2.78 19.4303 3.330037 0.004
GW 210 24 -2.78 -5.5501 3.607542 -2.78 19.4303 3.607542 0.004
GW 211 24 -2.78 -5.5501 3.885046 -2.78 19.4303 3.885046 0.004
GW 212 24 -2.78 -5.5501 4.162551 -2.78 19.4303 4.162551 0.004
GW 213 24 -2.78 -5.5501 4.440056 -2.78 19.4303 4.440056 0.004
GW 214 24 -2.78 -5.5501 4.71756 -2.78 19.4303 4.71756 0.004
GW 215 24 -2.78 -5.5501 4.995065 -2.78 19.4303 4.995065 0.004
GW 216 24 -2.78 -5.5501 5.272569 -2.78 19.4303 5.272569 0.004
GW 217 24 -2.78 -5.5501 5.550074 -2.78 19.4303 5.550074 0.004
GW 218 24 -2.78 -5.5501 5.827579 -2.78 19.4303 5.827579 0.004
GW 219 24 -2.78 -5.5501 6.105083 -2.78 19.4303 6.105083 0.004
GW 220 24 -2.78 -5.5501 6.382588 -2.78 19.4303 6.382588 0.004
GW 221 24 -2.78 -5.5501 6.660093 -2.78 19.4303 6.660093 0.004
GW 222 24 -2.78 -5.5501 6.937597 -2.78 19.4303 6.937597 0.004
GW 223 24 -2.78 -5.5501 7.215102 -2.78 19.4303 7.215102 0.004
GW 224 24 -2.78 -5.5501 7.492606 -2.78 19.4303 7.492606 0.004
GW 225 24 -2.78 -5.5501 7.770111 -2.78 19.4303 7.770111 0.004
GW 226 24 -2.78 -5.5501 8.047616 -2.78 19.4303 8.047616 0.004
GW 227 24 -2.78 -5.5501 8.32512 -2.78 19.4303 8.32512 0.004
GW 228 24 -2.78 -5.5501 8.602625 -2.78 19.4303 8.602625 0.004
GW 229 24 -2.78 -5.5501 8.88013 -2.78 19.4303 8.88013 0.004
GW 230 24 -2.78 -5.5501 9.157634 -2.78 19.4303 9.157634 0.004
GW 231 24 -2.78 -5.5501 9.435139 -2.78 19.4303 9.435139 0.004
GW 232 24 -2.78 -5.5501 9.712644 -2.78 19.4303 9.712644 0.004
GW 233 24 -2.78 -5.5501 9.990148 -2.78 19.4303 9.990148 0.004
GW 234 24 -2.78 -5.5501 10.267653 -2.78 19.4303 10.267653 0.004
GW 235 24 -2.78 -5.5501 10.545157 -2.78 19.4303 10.545157 0.004
GW 236 24 -2.78 -5.5501 10.822662 -2.78 19.4303 10.822662 0.004
GW 237 24 -2.78 -5.5501 11.100167 -2.78 19.4303 11.100167 0.004
GW 238 24 -2.78 -5.5501 11.377671 -2.78 19.4303 11.377671 0.004
GW 239 24 -2.78 -5.5501 11.655176 -2.78 19.4303 11.655176 0.004
GW 240 24 -2.78 -5.5501 11.932681 -2.78 19.4303 11.932681 0.004
GW 241 24 -2.78 -5.5501 12.210185 -2.78 19.4303 12.210185 0.004
GW 401 40 -2.78 -5.5501 12.210185 -2.78 -5.5501 1.11 0.004
GW 801 1 -2.78 -5.5501 1.11 -2.78 -5.5501 0 0.004
GW 402 40 -2.78 6.9401 12.210185 -2.78 6.9401 1.11 0.004
GW 802 1 -2.78 6.9401 1.11 -2.78 6.9401 0 0.004
GW 403 40 -2.78 19.4303 12.210185 -2.78 19.4303 1.11 0.004
GW 803 1 -2.78 19.4303 1.11 -2.78 19.4303 0 0.004
GE 1
EK
TL 101 5 102 5 -50 5
LD 5 0 0 0 3.8E7 0
EX 0 101 5 0 1 0
GN 2 0 0 0 13 0.005
FR 0 1 0 0 27.0 0
RP 0 91 360 1001 0. 0. 1. 1.
