CM Curtain Antenna with Aperiodic Screen Reflector ([211] Centre-fed at 26.0 MHz - Aperiodic Screen Reflector) -- AHRS-4-3-0.5
CM - - - created by 'The I.T.S. S.A.G. ver 0.80' on Mon Sep 23 09:37:25 2013
CM  - Wires 101-199 = Array Elements
CM  - Wires 201-399 = Horizontal Screen Elements
CM  - Wires 401-499 = Vertical Screen Elements
CM  - Wires 801-899 = 'Legs' for Vertical Screen Elements
CE
GW 101 9 0.0 0.0 5.763558 0.0 5.763558 5.763558 0.004
GW 102 9 0.0 8.645337 5.763558 0.0 14.408894 5.763558 0.004
GW 103 9 0.0 17.290673 5.763558 0.0 23.054231 5.763558 0.004
GW 104 9 0.0 25.93601 5.763558 0.0 31.699567 5.763558 0.004
GW 105 9 0.0 0.0 11.527115 0.0 5.763558 11.527115 0.004
GW 106 9 0.0 8.645337 11.527115 0.0 14.408894 11.527115 0.004
GW 107 9 0.0 17.290673 11.527115 0.0 23.054231 11.527115 0.004
GW 108 9 0.0 25.93601 11.527115 0.0 31.699567 11.527115 0.004
GW 109 9 0.0 0.0 17.290673 0.0 5.763558 17.290673 0.004
GW 110 9 0.0 8.645337 17.290673 0.0 14.408894 17.290673 0.004
GW 111 9 0.0 17.290673 17.290673 0.0 23.054231 17.290673 0.004
GW 112 9 0.0 25.93601 17.290673 0.0 31.699567 17.290673 0.004
GW 201 38 -2.88 -5.7636 1.1527 -2.88 37.4577 1.1527 0.004
GW 202 38 -2.88 -5.7636 1.440878 -2.88 37.4577 1.440878 0.004
GW 203 38 -2.88 -5.7636 1.729056 -2.88 37.4577 1.729056 0.004
GW 204 38 -2.88 -5.7636 2.017234 -2.88 37.4577 2.017234 0.004
GW 205 38 -2.88 -5.7636 2.305412 -2.88 37.4577 2.305412 0.004
GW 206 38 -2.88 -5.7636 2.593589 -2.88 37.4577 2.593589 0.004
GW 207 38 -2.88 -5.7636 2.881767 -2.88 37.4577 2.881767 0.004
GW 208 38 -2.88 -5.7636 3.169945 -2.88 37.4577 3.169945 0.004
GW 209 38 -2.88 -5.7636 3.458123 -2.88 37.4577 3.458123 0.004
GW 210 38 -2.88 -5.7636 3.746301 -2.88 37.4577 3.746301 0.004
GW 211 38 -2.88 -5.7636 4.034479 -2.88 37.4577 4.034479 0.004
GW 212 38 -2.88 -5.7636 4.322657 -2.88 37.4577 4.322657 0.004
GW 213 38 -2.88 -5.7636 4.610835 -2.88 37.4577 4.610835 0.004
GW 214 38 -2.88 -5.7636 4.899012 -2.88 37.4577 4.899012 0.004
GW 215 38 -2.88 -5.7636 5.18719 -2.88 37.4577 5.18719 0.004
GW 216 38 -2.88 -5.7636 5.475368 -2.88 37.4577 5.475368 0.004
GW 217 38 -2.88 -5.7636 5.763546 -2.88 37.4577 5.763546 0.004
GW 218 38 -2.88 -5.7636 6.051724 -2.88 37.4577 6.051724 0.004
GW 219 38 -2.88 -5.7636 6.339902 -2.88 37.4577 6.339902 0.004
GW 220 38 -2.88 -5.7636 6.62808 -2.88 37.4577 6.62808 0.004
GW 221 38 -2.88 -5.7636 6.916258 -2.88 37.4577 6.916258 0.004
GW 222 38 -2.88 -5.7636 7.204436 -2.88 37.4577 7.204436 0.004
GW 223 38 -2.88 -5.7636 7.492613 -2.88 37.4577 7.492613 0.004
GW 224 38 -2.88 -5.7636 7.780791 -2.88 37.4577 7.780791 0.004
GW 225 38 -2.88 -5.7636 8.068969 -2.88 37.4577 8.068969 0.004
GW 226 38 -2.88 -5.7636 8.357147 -2.88 37.4577 8.357147 0.004
GW 227 38 -2.88 -5.7636 8.645325 -2.88 37.4577 8.645325 0.004
GW 228 38 -2.88 -5.7636 8.933503 -2.88 37.4577 8.933503 0.004
GW 229 38 -2.88 -5.7636 9.221681 -2.88 37.4577 9.221681 0.004
GW 230 38 -2.88 -5.7636 9.509859 -2.88 37.4577 9.509859 0.004
GW 231 38 -2.88 -5.7636 9.798037 -2.88 37.4577 9.798037 0.004
GW 232 38 -2.88 -5.7636 10.086214 -2.88 37.4577 10.086214 0.004
GW 233 38 -2.88 -5.7636 10.374392 -2.88 37.4577 10.374392 0.004
GW 234 38 -2.88 -5.7636 10.66257 -2.88 37.4577 10.66257 0.004
GW 235 38 -2.88 -5.7636 10.950748 -2.88 37.4577 10.950748 0.004
GW 236 38 -2.88 -5.7636 11.238926 -2.88 37.4577 11.238926 0.004
GW 237 38 -2.88 -5.7636 11.527104 -2.88 37.4577 11.527104 0.004
GW 238 38 -2.88 -5.7636 11.815282 -2.88 37.4577 11.815282 0.004
GW 239 38 -2.88 -5.7636 12.10346 -2.88 37.4577 12.10346 0.004
GW 240 38 -2.88 -5.7636 12.391637 -2.88 37.4577 12.391637 0.004
GW 241 38 -2.88 -5.7636 12.679815 -2.88 37.4577 12.679815 0.004
GW 242 38 -2.88 -5.7636 12.967993 -2.88 37.4577 12.967993 0.004
GW 243 38 -2.88 -5.7636 13.256171 -2.88 37.4577 13.256171 0.004
GW 244 38 -2.88 -5.7636 13.544349 -2.88 37.4577 13.544349 0.004
GW 245 38 -2.88 -5.7636 13.832527 -2.88 37.4577 13.832527 0.004
GW 246 38 -2.88 -5.7636 14.120705 -2.88 37.4577 14.120705 0.004
GW 247 38 -2.88 -5.7636 14.408883 -2.88 37.4577 14.408883 0.004
GW 248 38 -2.88 -5.7636 14.697061 -2.88 37.4577 14.697061 0.004
GW 249 38 -2.88 -5.7636 14.985238 -2.88 37.4577 14.985238 0.004
GW 250 38 -2.88 -5.7636 15.273416 -2.88 37.4577 15.273416 0.004
GW 251 38 -2.88 -5.7636 15.561594 -2.88 37.4577 15.561594 0.004
GW 252 38 -2.88 -5.7636 15.849772 -2.88 37.4577 15.849772 0.004
GW 253 38 -2.88 -5.7636 16.13795 -2.88 37.4577 16.13795 0.004
GW 254 38 -2.88 -5.7636 16.426128 -2.88 37.4577 16.426128 0.004
GW 255 38 -2.88 -5.7636 16.714306 -2.88 37.4577 16.714306 0.004
GW 256 38 -2.88 -5.7636 17.002484 -2.88 37.4577 17.002484 0.004
GW 257 38 -2.88 -5.7636 17.290662 -2.88 37.4577 17.290662 0.004
GW 258 38 -2.88 -5.7636 17.578839 -2.88 37.4577 17.578839 0.004
GW 259 38 -2.88 -5.7636 17.867017 -2.88 37.4577 17.867017 0.004
GW 260 38 -2.88 -5.7636 18.155195 -2.88 37.4577 18.155195 0.004
GW 261 38 -2.88 -5.7636 18.443373 -2.88 37.4577 18.443373 0.004
GW 262 38 -2.88 -5.7636 18.731551 -2.88 37.4577 18.731551 0.004
GW 263 38 -2.88 -5.7636 19.019729 -2.88 37.4577 19.019729 0.004
GW 264 38 -2.88 -5.7636 19.307907 -2.88 37.4577 19.307907 0.004
GW 265 38 -2.88 -5.7636 19.596085 -2.88 37.4577 19.596085 0.004
GW 266 38 -2.88 -5.7636 19.884262 -2.88 37.4577 19.884262 0.004
GW 267 38 -2.88 -5.7636 20.17244 -2.88 37.4577 20.17244 0.004
GW 268 38 -2.88 -5.7636 20.460618 -2.88 37.4577 20.460618 0.004
GW 269 38 -2.88 -5.7636 20.748796 -2.88 37.4577 20.748796 0.004
GW 270 38 -2.88 -5.7636 21.036974 -2.88 37.4577 21.036974 0.004
GW 271 38 -2.88 -5.7636 21.325152 -2.88 37.4577 21.325152 0.004
GW 272 38 -2.88 -5.7636 21.61333 -2.88 37.4577 21.61333 0.004
GW 273 38 -2.88 -5.7636 21.901508 -2.88 37.4577 21.901508 0.004
GW 274 38 -2.88 -5.7636 22.189686 -2.88 37.4577 22.189686 0.004
GW 275 38 -2.88 -5.7636 22.477863 -2.88 37.4577 22.477863 0.004
GW 276 38 -2.88 -5.7636 22.766041 -2.88 37.4577 22.766041 0.004
GW 277 38 -2.88 -5.7636 23.054219 -2.88 37.4577 23.054219 0.004
GW 278 38 -2.88 -5.7636 23.342397 -2.88 37.4577 23.342397 0.004
GW 279 38 -2.88 -5.7636 23.630575 -2.88 37.4577 23.630575 0.004
GW 280 38 -2.88 -5.7636 23.918753 -2.88 37.4577 23.918753 0.004
GW 401 79 -2.88 -5.7636 23.918753 -2.88 -5.7636 1.1527 0.004
GW 801 1 -2.88 -5.7636 1.1527 -2.88 -5.7636 0 0.004
GW 402 79 -2.88 15.84705 23.918753 -2.88 15.84705 1.1527 0.004
GW 802 1 -2.88 15.84705 1.1527 -2.88 15.84705 0 0.004
GW 403 79 -2.88 37.4577 23.918753 -2.88 37.4577 1.1527 0.004
GW 803 1 -2.88 37.4577 1.1527 -2.88 37.4577 0 0.004
GE 1
EK
TL 101 5 102 5 -50 11
TL 101 5 103 5 -50 11
TL 101 5 104 5 -50 11
TL 101 5 105 5 -50 11
TL 101 5 106 5 -50 11
TL 101 5 107 5 -50 11
TL 101 5 108 5 -50 11
TL 101 5 109 5 -50 11
TL 101 5 110 5 -50 11
TL 101 5 111 5 -50 11
TL 101 5 112 5 -50 11
LD 5 0 0 0 3.8E7 0
EX 0 101 5 0 1 0
GN 2 0 0 0 13 0.005
FR 0 1 0 0 26.0 0
RP 0 91 360 1001 0. 0. 1. 1.
