CM Curtain Antenna with Aperiodic Screen Reflector ([146] Centre-fed at 6.0 MHz - Aperiodic Screen Reflector) -- AHRS-2-2-0.5
CM - - - created by 'The I.T.S. S.A.G. ver 0.80' on Mon Sep 23 09:37:25 2013
CM  - Wires 101-199 = Array Elements
CM  - Wires 201-399 = Horizontal Screen Elements
CM  - Wires 401-499 = Vertical Screen Elements
CM  - Wires 801-899 = 'Legs' for Vertical Screen Elements
CE
GW 101 9 0.0 0.0 24.975417 0.0 24.975417 24.975417 0.004
GW 102 9 0.0 37.463125 24.975417 0.0 62.438542 24.975417 0.004
GW 103 9 0.0 0.0 49.950833 0.0 24.975417 49.950833 0.004
GW 104 9 0.0 37.463125 49.950833 0.0 62.438542 49.950833 0.004
GW 201 24 -12.49 -24.9754 4.9951 -12.49 87.4163 4.9951 0.004
GW 202 24 -12.49 -24.9754 6.243871 -12.49 87.4163 6.243871 0.004
GW 203 24 -12.49 -24.9754 7.492642 -12.49 87.4163 7.492642 0.004
GW 204 24 -12.49 -24.9754 8.741412 -12.49 87.4163 8.741412 0.004
GW 205 24 -12.49 -24.9754 9.990183 -12.49 87.4163 9.990183 0.004
GW 206 24 -12.49 -24.9754 11.238954 -12.49 87.4163 11.238954 0.004
GW 207 24 -12.49 -24.9754 12.487725 -12.49 87.4163 12.487725 0.004
GW 208 24 -12.49 -24.9754 13.736496 -12.49 87.4163 13.736496 0.004
GW 209 24 -12.49 -24.9754 14.985267 -12.49 87.4163 14.985267 0.004
GW 210 24 -12.49 -24.9754 16.234037 -12.49 87.4163 16.234037 0.004
GW 211 24 -12.49 -24.9754 17.482808 -12.49 87.4163 17.482808 0.004
GW 212 24 -12.49 -24.9754 18.731579 -12.49 87.4163 18.731579 0.004
GW 213 24 -12.49 -24.9754 19.98035 -12.49 87.4163 19.98035 0.004
GW 214 24 -12.49 -24.9754 21.229121 -12.49 87.4163 21.229121 0.004
GW 215 24 -12.49 -24.9754 22.477892 -12.49 87.4163 22.477892 0.004
GW 216 24 -12.49 -24.9754 23.726663 -12.49 87.4163 23.726663 0.004
GW 217 24 -12.49 -24.9754 24.975433 -12.49 87.4163 24.975433 0.004
GW 218 24 -12.49 -24.9754 26.224204 -12.49 87.4163 26.224204 0.004
GW 219 24 -12.49 -24.9754 27.472975 -12.49 87.4163 27.472975 0.004
GW 220 24 -12.49 -24.9754 28.721746 -12.49 87.4163 28.721746 0.004
GW 221 24 -12.49 -24.9754 29.970517 -12.49 87.4163 29.970517 0.004
GW 222 24 -12.49 -24.9754 31.219288 -12.49 87.4163 31.219288 0.004
GW 223 24 -12.49 -24.9754 32.468058 -12.49 87.4163 32.468058 0.004
GW 224 24 -12.49 -24.9754 33.716829 -12.49 87.4163 33.716829 0.004
GW 225 24 -12.49 -24.9754 34.9656 -12.49 87.4163 34.9656 0.004
GW 226 24 -12.49 -24.9754 36.214371 -12.49 87.4163 36.214371 0.004
GW 227 24 -12.49 -24.9754 37.463142 -12.49 87.4163 37.463142 0.004
GW 228 24 -12.49 -24.9754 38.711913 -12.49 87.4163 38.711913 0.004
GW 229 24 -12.49 -24.9754 39.960683 -12.49 87.4163 39.960683 0.004
GW 230 24 -12.49 -24.9754 41.209454 -12.49 87.4163 41.209454 0.004
GW 231 24 -12.49 -24.9754 42.458225 -12.49 87.4163 42.458225 0.004
GW 232 24 -12.49 -24.9754 43.706996 -12.49 87.4163 43.706996 0.004
GW 233 24 -12.49 -24.9754 44.955767 -12.49 87.4163 44.955767 0.004
GW 234 24 -12.49 -24.9754 46.204538 -12.49 87.4163 46.204538 0.004
GW 235 24 -12.49 -24.9754 47.453308 -12.49 87.4163 47.453308 0.004
GW 236 24 -12.49 -24.9754 48.702079 -12.49 87.4163 48.702079 0.004
GW 237 24 -12.49 -24.9754 49.95085 -12.49 87.4163 49.95085 0.004
GW 238 24 -12.49 -24.9754 51.199621 -12.49 87.4163 51.199621 0.004
GW 239 24 -12.49 -24.9754 52.448392 -12.49 87.4163 52.448392 0.004
GW 240 24 -12.49 -24.9754 53.697163 -12.49 87.4163 53.697163 0.004
GW 241 24 -12.49 -24.9754 54.945933 -12.49 87.4163 54.945933 0.004
GW 242 24 -12.49 -24.9754 56.194704 -12.49 87.4163 56.194704 0.004
GW 243 24 -12.49 -24.9754 57.443475 -12.49 87.4163 57.443475 0.004
GW 244 24 -12.49 -24.9754 58.692246 -12.49 87.4163 58.692246 0.004
GW 245 24 -12.49 -24.9754 59.941017 -12.49 87.4163 59.941017 0.004
GW 246 24 -12.49 -24.9754 61.189788 -12.49 87.4163 61.189788 0.004
GW 247 24 -12.49 -24.9754 62.438558 -12.49 87.4163 62.438558 0.004
GW 248 24 -12.49 -24.9754 63.687329 -12.49 87.4163 63.687329 0.004
GW 249 24 -12.49 -24.9754 64.9361 -12.49 87.4163 64.9361 0.004
GW 250 24 -12.49 -24.9754 66.184871 -12.49 87.4163 66.184871 0.004
GW 251 24 -12.49 -24.9754 67.433642 -12.49 87.4163 67.433642 0.004
GW 252 24 -12.49 -24.9754 68.682412 -12.49 87.4163 68.682412 0.004
GW 253 24 -12.49 -24.9754 69.931183 -12.49 87.4163 69.931183 0.004
GW 254 24 -12.49 -24.9754 71.179954 -12.49 87.4163 71.179954 0.004
GW 255 24 -12.49 -24.9754 72.428725 -12.49 87.4163 72.428725 0.004
GW 256 24 -12.49 -24.9754 73.677496 -12.49 87.4163 73.677496 0.004
GW 257 24 -12.49 -24.9754 74.926267 -12.49 87.4163 74.926267 0.004
GW 258 24 -12.49 -24.9754 76.175038 -12.49 87.4163 76.175038 0.004
GW 259 24 -12.49 -24.9754 77.423808 -12.49 87.4163 77.423808 0.004
GW 260 24 -12.49 -24.9754 78.672579 -12.49 87.4163 78.672579 0.004
GW 261 24 -12.49 -24.9754 79.92135 -12.49 87.4163 79.92135 0.004
GW 401 60 -12.49 -24.9754 79.92135 -12.49 -24.9754 4.9951 0.004
GW 801 1 -12.49 -24.9754 4.9951 -12.49 -24.9754 0 0.004
GW 402 60 -12.49 31.22045 79.92135 -12.49 31.22045 4.9951 0.004
GW 802 1 -12.49 31.22045 4.9951 -12.49 31.22045 0 0.004
GW 403 60 -12.49 87.4163 79.92135 -12.49 87.4163 4.9951 0.004
GW 803 1 -12.49 87.4163 4.9951 -12.49 87.4163 0 0.004
GE 1
EK
TL 101 5 102 5 -50 6
TL 101 5 103 5 -50 6
TL 101 5 104 5 -50 6
LD 5 0 0 0 3.8E7 0
EX 0 101 5 0 1 0
GN 2 0 0 0 13 0.005
FR 0 1 0 0 6.0 0
RP 0 91 360 1001 0. 0. 1. 1.
