CM Curtain Antenna with Aperiodic Screen Reflector ([141] Centre-fed at 8.0 MHz - Aperiodic Screen Reflector) -- AHRS-2-1-0.5
CM - - - created by 'The I.T.S. S.A.G. ver 0.80' on Mon Sep 23 09:37:25 2013
CM  - Wires 101-199 = Array Elements
CM  - Wires 201-399 = Horizontal Screen Elements
CM  - Wires 401-499 = Vertical Screen Elements
CM  - Wires 801-899 = 'Legs' for Vertical Screen Elements
CE
GW 101 9 0.0 0.0 18.731562 0.0 18.731562 18.731562 0.004
GW 102 9 0.0 28.097344 18.731562 0.0 46.828906 18.731562 0.004
GW 201 24 -9.37 -18.7316 3.7463 -9.37 65.5647 3.7463 0.004
GW 202 24 -9.37 -18.7316 4.682878 -9.37 65.5647 4.682878 0.004
GW 203 24 -9.37 -18.7316 5.619456 -9.37 65.5647 5.619456 0.004
GW 204 24 -9.37 -18.7316 6.556034 -9.37 65.5647 6.556034 0.004
GW 205 24 -9.37 -18.7316 7.492612 -9.37 65.5647 7.492612 0.004
GW 206 24 -9.37 -18.7316 8.429191 -9.37 65.5647 8.429191 0.004
GW 207 24 -9.37 -18.7316 9.365769 -9.37 65.5647 9.365769 0.004
GW 208 24 -9.37 -18.7316 10.302347 -9.37 65.5647 10.302347 0.004
GW 209 24 -9.37 -18.7316 11.238925 -9.37 65.5647 11.238925 0.004
GW 210 24 -9.37 -18.7316 12.175503 -9.37 65.5647 12.175503 0.004
GW 211 24 -9.37 -18.7316 13.112081 -9.37 65.5647 13.112081 0.004
GW 212 24 -9.37 -18.7316 14.048659 -9.37 65.5647 14.048659 0.004
GW 213 24 -9.37 -18.7316 14.985238 -9.37 65.5647 14.985238 0.004
GW 214 24 -9.37 -18.7316 15.921816 -9.37 65.5647 15.921816 0.004
GW 215 24 -9.37 -18.7316 16.858394 -9.37 65.5647 16.858394 0.004
GW 216 24 -9.37 -18.7316 17.794972 -9.37 65.5647 17.794972 0.004
GW 217 24 -9.37 -18.7316 18.73155 -9.37 65.5647 18.73155 0.004
GW 218 24 -9.37 -18.7316 19.668128 -9.37 65.5647 19.668128 0.004
GW 219 24 -9.37 -18.7316 20.604706 -9.37 65.5647 20.604706 0.004
GW 220 24 -9.37 -18.7316 21.541284 -9.37 65.5647 21.541284 0.004
GW 221 24 -9.37 -18.7316 22.477863 -9.37 65.5647 22.477863 0.004
GW 222 24 -9.37 -18.7316 23.414441 -9.37 65.5647 23.414441 0.004
GW 223 24 -9.37 -18.7316 24.351019 -9.37 65.5647 24.351019 0.004
GW 224 24 -9.37 -18.7316 25.287597 -9.37 65.5647 25.287597 0.004
GW 225 24 -9.37 -18.7316 26.224175 -9.37 65.5647 26.224175 0.004
GW 226 24 -9.37 -18.7316 27.160753 -9.37 65.5647 27.160753 0.004
GW 227 24 -9.37 -18.7316 28.097331 -9.37 65.5647 28.097331 0.004
GW 228 24 -9.37 -18.7316 29.033909 -9.37 65.5647 29.033909 0.004
GW 229 24 -9.37 -18.7316 29.970488 -9.37 65.5647 29.970488 0.004
GW 230 24 -9.37 -18.7316 30.907066 -9.37 65.5647 30.907066 0.004
GW 231 24 -9.37 -18.7316 31.843644 -9.37 65.5647 31.843644 0.004
GW 232 24 -9.37 -18.7316 32.780222 -9.37 65.5647 32.780222 0.004
GW 233 24 -9.37 -18.7316 33.7168 -9.37 65.5647 33.7168 0.004
GW 234 24 -9.37 -18.7316 34.653378 -9.37 65.5647 34.653378 0.004
GW 235 24 -9.37 -18.7316 35.589956 -9.37 65.5647 35.589956 0.004
GW 236 24 -9.37 -18.7316 36.526534 -9.37 65.5647 36.526534 0.004
GW 237 24 -9.37 -18.7316 37.463113 -9.37 65.5647 37.463113 0.004
GW 238 24 -9.37 -18.7316 38.399691 -9.37 65.5647 38.399691 0.004
GW 239 24 -9.37 -18.7316 39.336269 -9.37 65.5647 39.336269 0.004
GW 240 24 -9.37 -18.7316 40.272847 -9.37 65.5647 40.272847 0.004
GW 401 39 -9.37 -18.7316 40.272847 -9.37 -18.7316 3.7463 0.004
GW 801 1 -9.37 -18.7316 3.7463 -9.37 -18.7316 0 0.004
GW 402 39 -9.37 23.41655 40.272847 -9.37 23.41655 3.7463 0.004
GW 802 1 -9.37 23.41655 3.7463 -9.37 23.41655 0 0.004
GW 403 39 -9.37 65.5647 40.272847 -9.37 65.5647 3.7463 0.004
GW 803 1 -9.37 65.5647 3.7463 -9.37 65.5647 0 0.004
GE 1
EK
TL 101 5 102 5 -50 5
LD 5 0 0 0 3.8E7 0
EX 0 101 5 0 1 0
GN 2 0 0 0 13 0.005
FR 0 1 0 0 8.0 0
RP 0 91 360 1001 0. 0. 1. 1.
