CM Curtain Antenna with Aperiodic Screen Reflector ([217] Centre-fed at 3.0 MHz - Aperiodic Screen Reflector) -- AHRS-4-4-0.8
CM - - - created by 'The I.T.S. S.A.G. ver 0.80' on Mon Sep 23 09:37:25 2013
CM  - Wires 101-199 = Array Elements
CM  - Wires 201-399 = Horizontal Screen Elements
CM  - Wires 401-499 = Vertical Screen Elements
CM  - Wires 801-899 = 'Legs' for Vertical Screen Elements
CE
GW 101 9 0.0 0.0 79.921333 0.0 49.950833 79.921333 0.004
GW 102 9 0.0 74.92625 79.921333 0.0 124.877083 79.921333 0.004
GW 103 9 0.0 149.8525 79.921333 0.0 199.803333 79.921333 0.004
GW 104 9 0.0 224.77875 79.921333 0.0 274.729583 79.921333 0.004
GW 105 9 0.0 0.0 129.872167 0.0 49.950833 129.872167 0.004
GW 106 9 0.0 74.92625 129.872167 0.0 124.877083 129.872167 0.004
GW 107 9 0.0 149.8525 129.872167 0.0 199.803333 129.872167 0.004
GW 108 9 0.0 224.77875 129.872167 0.0 274.729583 129.872167 0.004
GW 109 9 0.0 0.0 179.823 0.0 49.950833 179.823 0.004
GW 110 9 0.0 74.92625 179.823 0.0 124.877083 179.823 0.004
GW 111 9 0.0 149.8525 179.823 0.0 199.803333 179.823 0.004
GW 112 9 0.0 224.77875 179.823 0.0 274.729583 179.823 0.004
GW 113 9 0.0 0.0 229.773833 0.0 49.950833 229.773833 0.004
GW 114 9 0.0 74.92625 229.773833 0.0 124.877083 229.773833 0.004
GW 115 9 0.0 149.8525 229.773833 0.0 199.803333 229.773833 0.004
GW 116 9 0.0 224.77875 229.773833 0.0 274.729583 229.773833 0.004
GW 201 38 -24.98 -49.9508 29.9705 -24.98 324.6942 29.9705 0.004
GW 202 38 -24.98 -49.9508 32.468042 -24.98 324.6942 32.468042 0.004
GW 203 38 -24.98 -49.9508 34.965583 -24.98 324.6942 34.965583 0.004
GW 204 38 -24.98 -49.9508 37.463125 -24.98 324.6942 37.463125 0.004
GW 205 38 -24.98 -49.9508 39.960667 -24.98 324.6942 39.960667 0.004
GW 206 38 -24.98 -49.9508 42.458208 -24.98 324.6942 42.458208 0.004
GW 207 38 -24.98 -49.9508 44.95575 -24.98 324.6942 44.95575 0.004
GW 208 38 -24.98 -49.9508 47.453292 -24.98 324.6942 47.453292 0.004
GW 209 38 -24.98 -49.9508 49.950833 -24.98 324.6942 49.950833 0.004
GW 210 38 -24.98 -49.9508 52.448375 -24.98 324.6942 52.448375 0.004
GW 211 38 -24.98 -49.9508 54.945917 -24.98 324.6942 54.945917 0.004
GW 212 38 -24.98 -49.9508 57.443458 -24.98 324.6942 57.443458 0.004
GW 213 38 -24.98 -49.9508 59.941 -24.98 324.6942 59.941 0.004
GW 214 38 -24.98 -49.9508 62.438542 -24.98 324.6942 62.438542 0.004
GW 215 38 -24.98 -49.9508 64.936083 -24.98 324.6942 64.936083 0.004
GW 216 38 -24.98 -49.9508 67.433625 -24.98 324.6942 67.433625 0.004
GW 217 38 -24.98 -49.9508 69.931167 -24.98 324.6942 69.931167 0.004
GW 218 38 -24.98 -49.9508 72.428708 -24.98 324.6942 72.428708 0.004
GW 219 38 -24.98 -49.9508 74.92625 -24.98 324.6942 74.92625 0.004
GW 220 38 -24.98 -49.9508 77.423792 -24.98 324.6942 77.423792 0.004
GW 221 38 -24.98 -49.9508 79.921333 -24.98 324.6942 79.921333 0.004
GW 222 38 -24.98 -49.9508 82.418875 -24.98 324.6942 82.418875 0.004
GW 223 38 -24.98 -49.9508 84.916417 -24.98 324.6942 84.916417 0.004
GW 224 38 -24.98 -49.9508 87.413958 -24.98 324.6942 87.413958 0.004
GW 225 38 -24.98 -49.9508 89.9115 -24.98 324.6942 89.9115 0.004
GW 226 38 -24.98 -49.9508 92.409042 -24.98 324.6942 92.409042 0.004
GW 227 38 -24.98 -49.9508 94.906583 -24.98 324.6942 94.906583 0.004
GW 228 38 -24.98 -49.9508 97.404125 -24.98 324.6942 97.404125 0.004
GW 229 38 -24.98 -49.9508 99.901667 -24.98 324.6942 99.901667 0.004
GW 230 38 -24.98 -49.9508 102.399208 -24.98 324.6942 102.399208 0.004
GW 231 38 -24.98 -49.9508 104.89675 -24.98 324.6942 104.89675 0.004
GW 232 38 -24.98 -49.9508 107.394292 -24.98 324.6942 107.394292 0.004
GW 233 38 -24.98 -49.9508 109.891833 -24.98 324.6942 109.891833 0.004
GW 234 38 -24.98 -49.9508 112.389375 -24.98 324.6942 112.389375 0.004
GW 235 38 -24.98 -49.9508 114.886917 -24.98 324.6942 114.886917 0.004
GW 236 38 -24.98 -49.9508 117.384458 -24.98 324.6942 117.384458 0.004
GW 237 38 -24.98 -49.9508 119.882 -24.98 324.6942 119.882 0.004
GW 238 38 -24.98 -49.9508 122.379542 -24.98 324.6942 122.379542 0.004
GW 239 38 -24.98 -49.9508 124.877083 -24.98 324.6942 124.877083 0.004
GW 240 38 -24.98 -49.9508 127.374625 -24.98 324.6942 127.374625 0.004
GW 241 38 -24.98 -49.9508 129.872167 -24.98 324.6942 129.872167 0.004
GW 242 38 -24.98 -49.9508 132.369708 -24.98 324.6942 132.369708 0.004
GW 243 38 -24.98 -49.9508 134.86725 -24.98 324.6942 134.86725 0.004
GW 244 38 -24.98 -49.9508 137.364792 -24.98 324.6942 137.364792 0.004
GW 245 38 -24.98 -49.9508 139.862333 -24.98 324.6942 139.862333 0.004
GW 246 38 -24.98 -49.9508 142.359875 -24.98 324.6942 142.359875 0.004
GW 247 38 -24.98 -49.9508 144.857417 -24.98 324.6942 144.857417 0.004
GW 248 38 -24.98 -49.9508 147.354958 -24.98 324.6942 147.354958 0.004
GW 249 38 -24.98 -49.9508 149.8525 -24.98 324.6942 149.8525 0.004
GW 250 38 -24.98 -49.9508 152.350042 -24.98 324.6942 152.350042 0.004
GW 251 38 -24.98 -49.9508 154.847583 -24.98 324.6942 154.847583 0.004
GW 252 38 -24.98 -49.9508 157.345125 -24.98 324.6942 157.345125 0.004
GW 253 38 -24.98 -49.9508 159.842667 -24.98 324.6942 159.842667 0.004
GW 254 38 -24.98 -49.9508 162.340208 -24.98 324.6942 162.340208 0.004
GW 255 38 -24.98 -49.9508 164.83775 -24.98 324.6942 164.83775 0.004
GW 256 38 -24.98 -49.9508 167.335292 -24.98 324.6942 167.335292 0.004
GW 257 38 -24.98 -49.9508 169.832833 -24.98 324.6942 169.832833 0.004
GW 258 38 -24.98 -49.9508 172.330375 -24.98 324.6942 172.330375 0.004
GW 259 38 -24.98 -49.9508 174.827917 -24.98 324.6942 174.827917 0.004
GW 260 38 -24.98 -49.9508 177.325458 -24.98 324.6942 177.325458 0.004
GW 261 38 -24.98 -49.9508 179.823 -24.98 324.6942 179.823 0.004
GW 262 38 -24.98 -49.9508 182.320542 -24.98 324.6942 182.320542 0.004
GW 263 38 -24.98 -49.9508 184.818083 -24.98 324.6942 184.818083 0.004
GW 264 38 -24.98 -49.9508 187.315625 -24.98 324.6942 187.315625 0.004
GW 265 38 -24.98 -49.9508 189.813167 -24.98 324.6942 189.813167 0.004
GW 266 38 -24.98 -49.9508 192.310708 -24.98 324.6942 192.310708 0.004
GW 267 38 -24.98 -49.9508 194.80825 -24.98 324.6942 194.80825 0.004
GW 268 38 -24.98 -49.9508 197.305792 -24.98 324.6942 197.305792 0.004
GW 269 38 -24.98 -49.9508 199.803333 -24.98 324.6942 199.803333 0.004
GW 270 38 -24.98 -49.9508 202.300875 -24.98 324.6942 202.300875 0.004
GW 271 38 -24.98 -49.9508 204.798417 -24.98 324.6942 204.798417 0.004
GW 272 38 -24.98 -49.9508 207.295958 -24.98 324.6942 207.295958 0.004
GW 273 38 -24.98 -49.9508 209.7935 -24.98 324.6942 209.7935 0.004
GW 274 38 -24.98 -49.9508 212.291042 -24.98 324.6942 212.291042 0.004
GW 275 38 -24.98 -49.9508 214.788583 -24.98 324.6942 214.788583 0.004
GW 276 38 -24.98 -49.9508 217.286125 -24.98 324.6942 217.286125 0.004
GW 277 38 -24.98 -49.9508 219.783667 -24.98 324.6942 219.783667 0.004
GW 278 38 -24.98 -49.9508 222.281208 -24.98 324.6942 222.281208 0.004
GW 279 38 -24.98 -49.9508 224.77875 -24.98 324.6942 224.77875 0.004
GW 280 38 -24.98 -49.9508 227.276292 -24.98 324.6942 227.276292 0.004
GW 281 38 -24.98 -49.9508 229.773833 -24.98 324.6942 229.773833 0.004
GW 282 38 -24.98 -49.9508 232.271375 -24.98 324.6942 232.271375 0.004
GW 283 38 -24.98 -49.9508 234.768917 -24.98 324.6942 234.768917 0.004
GW 284 38 -24.98 -49.9508 237.266458 -24.98 324.6942 237.266458 0.004
GW 285 38 -24.98 -49.9508 239.764 -24.98 324.6942 239.764 0.004
GW 286 38 -24.98 -49.9508 242.261542 -24.98 324.6942 242.261542 0.004
GW 287 38 -24.98 -49.9508 244.759083 -24.98 324.6942 244.759083 0.004
GW 288 38 -24.98 -49.9508 247.256625 -24.98 324.6942 247.256625 0.004
GW 289 38 -24.98 -49.9508 249.754167 -24.98 324.6942 249.754167 0.004
GW 290 38 -24.98 -49.9508 252.251708 -24.98 324.6942 252.251708 0.004
GW 291 38 -24.98 -49.9508 254.74925 -24.98 324.6942 254.74925 0.004
GW 292 38 -24.98 -49.9508 257.246792 -24.98 324.6942 257.246792 0.004
GW 293 38 -24.98 -49.9508 259.744333 -24.98 324.6942 259.744333 0.004
GW 294 38 -24.98 -49.9508 262.241875 -24.98 324.6942 262.241875 0.004
GW 295 38 -24.98 -49.9508 264.739417 -24.98 324.6942 264.739417 0.004
GW 296 38 -24.98 -49.9508 267.236958 -24.98 324.6942 267.236958 0.004
GW 297 38 -24.98 -49.9508 269.7345 -24.98 324.6942 269.7345 0.004
GW 298 38 -24.98 -49.9508 272.232042 -24.98 324.6942 272.232042 0.004
GW 299 38 -24.98 -49.9508 274.729583 -24.98 324.6942 274.729583 0.004
GW 300 38 -24.98 -49.9508 277.227125 -24.98 324.6942 277.227125 0.004
GW 401 99 -24.98 -49.9508 277.227125 -24.98 -49.9508 29.9705 0.004
GW 801 4 -24.98 -49.9508 29.9705 -24.98 -49.9508 0 0.004
GW 402 99 -24.98 137.3717 277.227125 -24.98 137.3717 29.9705 0.004
GW 802 4 -24.98 137.3717 29.9705 -24.98 137.3717 0 0.004
GW 403 99 -24.98 324.6942 277.227125 -24.98 324.6942 29.9705 0.004
GW 803 4 -24.98 324.6942 29.9705 -24.98 324.6942 0 0.004
GE 1
EK
TL 101 5 102 5 -50 12
TL 101 5 103 5 -50 12
TL 101 5 104 5 -50 12
TL 101 5 105 5 -50 12
TL 101 5 106 5 -50 12
TL 101 5 107 5 -50 12
TL 101 5 108 5 -50 12
TL 101 5 109 5 -50 12
TL 101 5 110 5 -50 12
TL 101 5 111 5 -50 12
TL 101 5 112 5 -50 12
TL 101 5 113 5 -50 12
TL 101 5 114 5 -50 12
TL 101 5 115 5 -50 12
TL 101 5 116 5 -50 12
LD 5 0 0 0 3.8E7 0
EX 0 101 5 0 1 0
GN 2 0 0 0 13 0.005
FR 0 1 0 0 3.0 0
RP 0 91 360 1001 0. 0. 1. 1.
