CM Curtain Antenna with Aperiodic Screen Reflector ([141] Centre-fed at 25.0 MHz - Aperiodic Screen Reflector) -- AHRS-2-1-0.5
CM - - - created by 'The I.T.S. S.A.G. ver 0.80' on Mon Sep 23 09:37:25 2013
CM  - Wires 101-199 = Array Elements
CM  - Wires 201-399 = Horizontal Screen Elements
CM  - Wires 401-499 = Vertical Screen Elements
CM  - Wires 801-899 = 'Legs' for Vertical Screen Elements
CE
GW 101 9 0.0 0.0 5.9941 0.0 5.9941 5.9941 0.004
GW 102 9 0.0 8.99115 5.9941 0.0 14.98525 5.9941 0.004
GW 201 24 -3.0 -5.9941 1.1988 -3.0 20.9823 1.1988 0.004
GW 202 24 -3.0 -5.9941 1.498505 -3.0 20.9823 1.498505 0.004
GW 203 24 -3.0 -5.9941 1.79821 -3.0 20.9823 1.79821 0.004
GW 204 24 -3.0 -5.9941 2.097915 -3.0 20.9823 2.097915 0.004
GW 205 24 -3.0 -5.9941 2.39762 -3.0 20.9823 2.39762 0.004
GW 206 24 -3.0 -5.9941 2.697325 -3.0 20.9823 2.697325 0.004
GW 207 24 -3.0 -5.9941 2.99703 -3.0 20.9823 2.99703 0.004
GW 208 24 -3.0 -5.9941 3.296735 -3.0 20.9823 3.296735 0.004
GW 209 24 -3.0 -5.9941 3.59644 -3.0 20.9823 3.59644 0.004
GW 210 24 -3.0 -5.9941 3.896145 -3.0 20.9823 3.896145 0.004
GW 211 24 -3.0 -5.9941 4.19585 -3.0 20.9823 4.19585 0.004
GW 212 24 -3.0 -5.9941 4.495555 -3.0 20.9823 4.495555 0.004
GW 213 24 -3.0 -5.9941 4.79526 -3.0 20.9823 4.79526 0.004
GW 214 24 -3.0 -5.9941 5.094965 -3.0 20.9823 5.094965 0.004
GW 215 24 -3.0 -5.9941 5.39467 -3.0 20.9823 5.39467 0.004
GW 216 24 -3.0 -5.9941 5.694375 -3.0 20.9823 5.694375 0.004
GW 217 24 -3.0 -5.9941 5.99408 -3.0 20.9823 5.99408 0.004
GW 218 24 -3.0 -5.9941 6.293785 -3.0 20.9823 6.293785 0.004
GW 219 24 -3.0 -5.9941 6.59349 -3.0 20.9823 6.59349 0.004
GW 220 24 -3.0 -5.9941 6.893195 -3.0 20.9823 6.893195 0.004
GW 221 24 -3.0 -5.9941 7.1929 -3.0 20.9823 7.1929 0.004
GW 222 24 -3.0 -5.9941 7.492605 -3.0 20.9823 7.492605 0.004
GW 223 24 -3.0 -5.9941 7.79231 -3.0 20.9823 7.79231 0.004
GW 224 24 -3.0 -5.9941 8.092015 -3.0 20.9823 8.092015 0.004
GW 225 24 -3.0 -5.9941 8.39172 -3.0 20.9823 8.39172 0.004
GW 226 24 -3.0 -5.9941 8.691425 -3.0 20.9823 8.691425 0.004
GW 227 24 -3.0 -5.9941 8.99113 -3.0 20.9823 8.99113 0.004
GW 228 24 -3.0 -5.9941 9.290835 -3.0 20.9823 9.290835 0.004
GW 229 24 -3.0 -5.9941 9.59054 -3.0 20.9823 9.59054 0.004
GW 230 24 -3.0 -5.9941 9.890245 -3.0 20.9823 9.890245 0.004
GW 231 24 -3.0 -5.9941 10.18995 -3.0 20.9823 10.18995 0.004
GW 232 24 -3.0 -5.9941 10.489655 -3.0 20.9823 10.489655 0.004
GW 233 24 -3.0 -5.9941 10.78936 -3.0 20.9823 10.78936 0.004
GW 234 24 -3.0 -5.9941 11.089065 -3.0 20.9823 11.089065 0.004
GW 235 24 -3.0 -5.9941 11.38877 -3.0 20.9823 11.38877 0.004
GW 236 24 -3.0 -5.9941 11.688475 -3.0 20.9823 11.688475 0.004
GW 237 24 -3.0 -5.9941 11.98818 -3.0 20.9823 11.98818 0.004
GW 238 24 -3.0 -5.9941 12.287885 -3.0 20.9823 12.287885 0.004
GW 239 24 -3.0 -5.9941 12.58759 -3.0 20.9823 12.58759 0.004
GW 240 24 -3.0 -5.9941 12.887295 -3.0 20.9823 12.887295 0.004
GW 241 24 -3.0 -5.9941 13.187 -3.0 20.9823 13.187 0.004
GW 401 40 -3.0 -5.9941 13.187 -3.0 -5.9941 1.1988 0.004
GW 801 1 -3.0 -5.9941 1.1988 -3.0 -5.9941 0 0.004
GW 402 40 -3.0 7.4941 13.187 -3.0 7.4941 1.1988 0.004
GW 802 1 -3.0 7.4941 1.1988 -3.0 7.4941 0 0.004
GW 403 40 -3.0 20.9823 13.187 -3.0 20.9823 1.1988 0.004
GW 803 1 -3.0 20.9823 1.1988 -3.0 20.9823 0 0.004
GE 1
EK
TL 101 5 102 5 -50 5
LD 5 0 0 0 3.8E7 0
EX 0 101 5 0 1 0
GN 2 0 0 0 13 0.005
FR 0 1 0 0 25.0 0
RP 0 91 360 1001 0. 0. 1. 1.
