CM Curtain Antenna with Aperiodic Screen Reflector ([218] Centre-fed at 17.0 MHz - Aperiodic Screen Reflector) -- AHRS-4-4-1.0
CM - - - created by 'The I.T.S. S.A.G. ver 0.80' on Mon Sep 23 09:37:25 2013
CM  - Wires 101-199 = Array Elements
CM  - Wires 201-399 = Horizontal Screen Elements
CM  - Wires 401-499 = Vertical Screen Elements
CM  - Wires 801-899 = 'Legs' for Vertical Screen Elements
CE
GW 101 9 0.0 0.0 17.629706 0.0 8.814853 17.629706 0.004
GW 102 9 0.0 13.222279 17.629706 0.0 22.037132 17.629706 0.004
GW 103 9 0.0 26.444559 17.629706 0.0 35.259412 17.629706 0.004
GW 104 9 0.0 39.666838 17.629706 0.0 48.481691 17.629706 0.004
GW 105 9 0.0 0.0 26.444559 0.0 8.814853 26.444559 0.004
GW 106 9 0.0 13.222279 26.444559 0.0 22.037132 26.444559 0.004
GW 107 9 0.0 26.444559 26.444559 0.0 35.259412 26.444559 0.004
GW 108 9 0.0 39.666838 26.444559 0.0 48.481691 26.444559 0.004
GW 109 9 0.0 0.0 35.259412 0.0 8.814853 35.259412 0.004
GW 110 9 0.0 13.222279 35.259412 0.0 22.037132 35.259412 0.004
GW 111 9 0.0 26.444559 35.259412 0.0 35.259412 35.259412 0.004
GW 112 9 0.0 39.666838 35.259412 0.0 48.481691 35.259412 0.004
GW 113 9 0.0 0.0 44.074265 0.0 8.814853 44.074265 0.004
GW 114 9 0.0 13.222279 44.074265 0.0 22.037132 44.074265 0.004
GW 115 9 0.0 26.444559 44.074265 0.0 35.259412 44.074265 0.004
GW 116 9 0.0 39.666838 44.074265 0.0 48.481691 44.074265 0.004
GW 201 38 -4.41 -8.8149 8.8149 -4.41 57.3042 8.8149 0.004
GW 202 38 -4.41 -8.8149 9.255643 -4.41 57.3042 9.255643 0.004
GW 203 38 -4.41 -8.8149 9.696385 -4.41 57.3042 9.696385 0.004
GW 204 38 -4.41 -8.8149 10.137128 -4.41 57.3042 10.137128 0.004
GW 205 38 -4.41 -8.8149 10.577871 -4.41 57.3042 10.577871 0.004
GW 206 38 -4.41 -8.8149 11.018613 -4.41 57.3042 11.018613 0.004
GW 207 38 -4.41 -8.8149 11.459356 -4.41 57.3042 11.459356 0.004
GW 208 38 -4.41 -8.8149 11.900099 -4.41 57.3042 11.900099 0.004
GW 209 38 -4.41 -8.8149 12.340841 -4.41 57.3042 12.340841 0.004
GW 210 38 -4.41 -8.8149 12.781584 -4.41 57.3042 12.781584 0.004
GW 211 38 -4.41 -8.8149 13.222326 -4.41 57.3042 13.222326 0.004
GW 212 38 -4.41 -8.8149 13.663069 -4.41 57.3042 13.663069 0.004
GW 213 38 -4.41 -8.8149 14.103812 -4.41 57.3042 14.103812 0.004
GW 214 38 -4.41 -8.8149 14.544554 -4.41 57.3042 14.544554 0.004
GW 215 38 -4.41 -8.8149 14.985297 -4.41 57.3042 14.985297 0.004
GW 216 38 -4.41 -8.8149 15.42604 -4.41 57.3042 15.42604 0.004
GW 217 38 -4.41 -8.8149 15.866782 -4.41 57.3042 15.866782 0.004
GW 218 38 -4.41 -8.8149 16.307525 -4.41 57.3042 16.307525 0.004
GW 219 38 -4.41 -8.8149 16.748268 -4.41 57.3042 16.748268 0.004
GW 220 38 -4.41 -8.8149 17.18901 -4.41 57.3042 17.18901 0.004
GW 221 38 -4.41 -8.8149 17.629753 -4.41 57.3042 17.629753 0.004
GW 222 38 -4.41 -8.8149 18.070496 -4.41 57.3042 18.070496 0.004
GW 223 38 -4.41 -8.8149 18.511238 -4.41 57.3042 18.511238 0.004
GW 224 38 -4.41 -8.8149 18.951981 -4.41 57.3042 18.951981 0.004
GW 225 38 -4.41 -8.8149 19.392724 -4.41 57.3042 19.392724 0.004
GW 226 38 -4.41 -8.8149 19.833466 -4.41 57.3042 19.833466 0.004
GW 227 38 -4.41 -8.8149 20.274209 -4.41 57.3042 20.274209 0.004
GW 228 38 -4.41 -8.8149 20.714951 -4.41 57.3042 20.714951 0.004
GW 229 38 -4.41 -8.8149 21.155694 -4.41 57.3042 21.155694 0.004
GW 230 38 -4.41 -8.8149 21.596437 -4.41 57.3042 21.596437 0.004
GW 231 38 -4.41 -8.8149 22.037179 -4.41 57.3042 22.037179 0.004
GW 232 38 -4.41 -8.8149 22.477922 -4.41 57.3042 22.477922 0.004
GW 233 38 -4.41 -8.8149 22.918665 -4.41 57.3042 22.918665 0.004
GW 234 38 -4.41 -8.8149 23.359407 -4.41 57.3042 23.359407 0.004
GW 235 38 -4.41 -8.8149 23.80015 -4.41 57.3042 23.80015 0.004
GW 236 38 -4.41 -8.8149 24.240893 -4.41 57.3042 24.240893 0.004
GW 237 38 -4.41 -8.8149 24.681635 -4.41 57.3042 24.681635 0.004
GW 238 38 -4.41 -8.8149 25.122378 -4.41 57.3042 25.122378 0.004
GW 239 38 -4.41 -8.8149 25.563121 -4.41 57.3042 25.563121 0.004
GW 240 38 -4.41 -8.8149 26.003863 -4.41 57.3042 26.003863 0.004
GW 241 38 -4.41 -8.8149 26.444606 -4.41 57.3042 26.444606 0.004
GW 242 38 -4.41 -8.8149 26.885349 -4.41 57.3042 26.885349 0.004
GW 243 38 -4.41 -8.8149 27.326091 -4.41 57.3042 27.326091 0.004
GW 244 38 -4.41 -8.8149 27.766834 -4.41 57.3042 27.766834 0.004
GW 245 38 -4.41 -8.8149 28.207576 -4.41 57.3042 28.207576 0.004
GW 246 38 -4.41 -8.8149 28.648319 -4.41 57.3042 28.648319 0.004
GW 247 38 -4.41 -8.8149 29.089062 -4.41 57.3042 29.089062 0.004
GW 248 38 -4.41 -8.8149 29.529804 -4.41 57.3042 29.529804 0.004
GW 249 38 -4.41 -8.8149 29.970547 -4.41 57.3042 29.970547 0.004
GW 250 38 -4.41 -8.8149 30.41129 -4.41 57.3042 30.41129 0.004
GW 251 38 -4.41 -8.8149 30.852032 -4.41 57.3042 30.852032 0.004
GW 252 38 -4.41 -8.8149 31.292775 -4.41 57.3042 31.292775 0.004
GW 253 38 -4.41 -8.8149 31.733518 -4.41 57.3042 31.733518 0.004
GW 254 38 -4.41 -8.8149 32.17426 -4.41 57.3042 32.17426 0.004
GW 255 38 -4.41 -8.8149 32.615003 -4.41 57.3042 32.615003 0.004
GW 256 38 -4.41 -8.8149 33.055746 -4.41 57.3042 33.055746 0.004
GW 257 38 -4.41 -8.8149 33.496488 -4.41 57.3042 33.496488 0.004
GW 258 38 -4.41 -8.8149 33.937231 -4.41 57.3042 33.937231 0.004
GW 259 38 -4.41 -8.8149 34.377974 -4.41 57.3042 34.377974 0.004
GW 260 38 -4.41 -8.8149 34.818716 -4.41 57.3042 34.818716 0.004
GW 261 38 -4.41 -8.8149 35.259459 -4.41 57.3042 35.259459 0.004
GW 262 38 -4.41 -8.8149 35.700201 -4.41 57.3042 35.700201 0.004
GW 263 38 -4.41 -8.8149 36.140944 -4.41 57.3042 36.140944 0.004
GW 264 38 -4.41 -8.8149 36.581687 -4.41 57.3042 36.581687 0.004
GW 265 38 -4.41 -8.8149 37.022429 -4.41 57.3042 37.022429 0.004
GW 266 38 -4.41 -8.8149 37.463172 -4.41 57.3042 37.463172 0.004
GW 267 38 -4.41 -8.8149 37.903915 -4.41 57.3042 37.903915 0.004
GW 268 38 -4.41 -8.8149 38.344657 -4.41 57.3042 38.344657 0.004
GW 269 38 -4.41 -8.8149 38.7854 -4.41 57.3042 38.7854 0.004
GW 270 38 -4.41 -8.8149 39.226143 -4.41 57.3042 39.226143 0.004
GW 271 38 -4.41 -8.8149 39.666885 -4.41 57.3042 39.666885 0.004
GW 272 38 -4.41 -8.8149 40.107628 -4.41 57.3042 40.107628 0.004
GW 273 38 -4.41 -8.8149 40.548371 -4.41 57.3042 40.548371 0.004
GW 274 38 -4.41 -8.8149 40.989113 -4.41 57.3042 40.989113 0.004
GW 275 38 -4.41 -8.8149 41.429856 -4.41 57.3042 41.429856 0.004
GW 276 38 -4.41 -8.8149 41.870599 -4.41 57.3042 41.870599 0.004
GW 277 38 -4.41 -8.8149 42.311341 -4.41 57.3042 42.311341 0.004
GW 278 38 -4.41 -8.8149 42.752084 -4.41 57.3042 42.752084 0.004
GW 279 38 -4.41 -8.8149 43.192826 -4.41 57.3042 43.192826 0.004
GW 280 38 -4.41 -8.8149 43.633569 -4.41 57.3042 43.633569 0.004
GW 281 38 -4.41 -8.8149 44.074312 -4.41 57.3042 44.074312 0.004
GW 282 38 -4.41 -8.8149 44.515054 -4.41 57.3042 44.515054 0.004
GW 283 38 -4.41 -8.8149 44.955797 -4.41 57.3042 44.955797 0.004
GW 284 38 -4.41 -8.8149 45.39654 -4.41 57.3042 45.39654 0.004
GW 285 38 -4.41 -8.8149 45.837282 -4.41 57.3042 45.837282 0.004
GW 286 38 -4.41 -8.8149 46.278025 -4.41 57.3042 46.278025 0.004
GW 287 38 -4.41 -8.8149 46.718768 -4.41 57.3042 46.718768 0.004
GW 288 38 -4.41 -8.8149 47.15951 -4.41 57.3042 47.15951 0.004
GW 289 38 -4.41 -8.8149 47.600253 -4.41 57.3042 47.600253 0.004
GW 290 38 -4.41 -8.8149 48.040996 -4.41 57.3042 48.040996 0.004
GW 291 38 -4.41 -8.8149 48.481738 -4.41 57.3042 48.481738 0.004
GW 292 38 -4.41 -8.8149 48.922481 -4.41 57.3042 48.922481 0.004
GW 293 38 -4.41 -8.8149 49.363224 -4.41 57.3042 49.363224 0.004
GW 294 38 -4.41 -8.8149 49.803966 -4.41 57.3042 49.803966 0.004
GW 295 38 -4.41 -8.8149 50.244709 -4.41 57.3042 50.244709 0.004
GW 296 38 -4.41 -8.8149 50.685451 -4.41 57.3042 50.685451 0.004
GW 297 38 -4.41 -8.8149 51.126194 -4.41 57.3042 51.126194 0.004
GW 298 38 -4.41 -8.8149 51.566937 -4.41 57.3042 51.566937 0.004
GW 299 38 -4.41 -8.8149 52.007679 -4.41 57.3042 52.007679 0.004
GW 300 38 -4.41 -8.8149 52.448422 -4.41 57.3042 52.448422 0.004
GW 401 99 -4.41 -8.8149 52.448422 -4.41 -8.8149 8.8149 0.004
GW 801 8 -4.41 -8.8149 8.8149 -4.41 -8.8149 0 0.004
GW 402 99 -4.41 24.24465 52.448422 -4.41 24.24465 8.8149 0.004
GW 802 8 -4.41 24.24465 8.8149 -4.41 24.24465 0 0.004
GW 403 99 -4.41 57.3042 52.448422 -4.41 57.3042 8.8149 0.004
GW 803 8 -4.41 57.3042 8.8149 -4.41 57.3042 0 0.004
GE 1
EK
TL 101 5 102 5 -50 12
TL 101 5 103 5 -50 12
TL 101 5 104 5 -50 12
TL 101 5 105 5 -50 12
TL 101 5 106 5 -50 12
TL 101 5 107 5 -50 12
TL 101 5 108 5 -50 12
TL 101 5 109 5 -50 12
TL 101 5 110 5 -50 12
TL 101 5 111 5 -50 12
TL 101 5 112 5 -50 12
TL 101 5 113 5 -50 12
TL 101 5 114 5 -50 12
TL 101 5 115 5 -50 12
TL 101 5 116 5 -50 12
LD 5 0 0 0 3.8E7 0
EX 0 101 5 0 1 0
GN 2 0 0 0 13 0.005
FR 0 1 0 0 17.0 0
RP 0 91 360 1001 0. 0. 1. 1.
