CM Curtain Antenna with Aperiodic Screen Reflector ([218] Centre-fed at 3.0 MHz - Aperiodic Screen Reflector) -- AHRS-4-4-1.0
CM - - - created by 'The I.T.S. S.A.G. ver 0.80' on Mon Sep 23 09:37:25 2013
CM  - Wires 101-199 = Array Elements
CM  - Wires 201-399 = Horizontal Screen Elements
CM  - Wires 401-499 = Vertical Screen Elements
CM  - Wires 801-899 = 'Legs' for Vertical Screen Elements
CE
GW 101 9 0.0 0.0 99.901667 0.0 49.950833 99.901667 0.004
GW 102 9 0.0 74.92625 99.901667 0.0 124.877083 99.901667 0.004
GW 103 9 0.0 149.8525 99.901667 0.0 199.803333 99.901667 0.004
GW 104 9 0.0 224.77875 99.901667 0.0 274.729583 99.901667 0.004
GW 105 9 0.0 0.0 149.8525 0.0 49.950833 149.8525 0.004
GW 106 9 0.0 74.92625 149.8525 0.0 124.877083 149.8525 0.004
GW 107 9 0.0 149.8525 149.8525 0.0 199.803333 149.8525 0.004
GW 108 9 0.0 224.77875 149.8525 0.0 274.729583 149.8525 0.004
GW 109 9 0.0 0.0 199.803333 0.0 49.950833 199.803333 0.004
GW 110 9 0.0 74.92625 199.803333 0.0 124.877083 199.803333 0.004
GW 111 9 0.0 149.8525 199.803333 0.0 199.803333 199.803333 0.004
GW 112 9 0.0 224.77875 199.803333 0.0 274.729583 199.803333 0.004
GW 113 9 0.0 0.0 249.754167 0.0 49.950833 249.754167 0.004
GW 114 9 0.0 74.92625 249.754167 0.0 124.877083 249.754167 0.004
GW 115 9 0.0 149.8525 249.754167 0.0 199.803333 249.754167 0.004
GW 116 9 0.0 224.77875 249.754167 0.0 274.729583 249.754167 0.004
GW 201 38 -24.98 -49.9508 49.9508 -24.98 324.6942 49.9508 0.004
GW 202 38 -24.98 -49.9508 52.448342 -24.98 324.6942 52.448342 0.004
GW 203 38 -24.98 -49.9508 54.945883 -24.98 324.6942 54.945883 0.004
GW 204 38 -24.98 -49.9508 57.443425 -24.98 324.6942 57.443425 0.004
GW 205 38 -24.98 -49.9508 59.940967 -24.98 324.6942 59.940967 0.004
GW 206 38 -24.98 -49.9508 62.438508 -24.98 324.6942 62.438508 0.004
GW 207 38 -24.98 -49.9508 64.93605 -24.98 324.6942 64.93605 0.004
GW 208 38 -24.98 -49.9508 67.433592 -24.98 324.6942 67.433592 0.004
GW 209 38 -24.98 -49.9508 69.931133 -24.98 324.6942 69.931133 0.004
GW 210 38 -24.98 -49.9508 72.428675 -24.98 324.6942 72.428675 0.004
GW 211 38 -24.98 -49.9508 74.926217 -24.98 324.6942 74.926217 0.004
GW 212 38 -24.98 -49.9508 77.423758 -24.98 324.6942 77.423758 0.004
GW 213 38 -24.98 -49.9508 79.9213 -24.98 324.6942 79.9213 0.004
GW 214 38 -24.98 -49.9508 82.418842 -24.98 324.6942 82.418842 0.004
GW 215 38 -24.98 -49.9508 84.916383 -24.98 324.6942 84.916383 0.004
GW 216 38 -24.98 -49.9508 87.413925 -24.98 324.6942 87.413925 0.004
GW 217 38 -24.98 -49.9508 89.911467 -24.98 324.6942 89.911467 0.004
GW 218 38 -24.98 -49.9508 92.409008 -24.98 324.6942 92.409008 0.004
GW 219 38 -24.98 -49.9508 94.90655 -24.98 324.6942 94.90655 0.004
GW 220 38 -24.98 -49.9508 97.404092 -24.98 324.6942 97.404092 0.004
GW 221 38 -24.98 -49.9508 99.901633 -24.98 324.6942 99.901633 0.004
GW 222 38 -24.98 -49.9508 102.399175 -24.98 324.6942 102.399175 0.004
GW 223 38 -24.98 -49.9508 104.896717 -24.98 324.6942 104.896717 0.004
GW 224 38 -24.98 -49.9508 107.394258 -24.98 324.6942 107.394258 0.004
GW 225 38 -24.98 -49.9508 109.8918 -24.98 324.6942 109.8918 0.004
GW 226 38 -24.98 -49.9508 112.389342 -24.98 324.6942 112.389342 0.004
GW 227 38 -24.98 -49.9508 114.886883 -24.98 324.6942 114.886883 0.004
GW 228 38 -24.98 -49.9508 117.384425 -24.98 324.6942 117.384425 0.004
GW 229 38 -24.98 -49.9508 119.881967 -24.98 324.6942 119.881967 0.004
GW 230 38 -24.98 -49.9508 122.379508 -24.98 324.6942 122.379508 0.004
GW 231 38 -24.98 -49.9508 124.87705 -24.98 324.6942 124.87705 0.004
GW 232 38 -24.98 -49.9508 127.374592 -24.98 324.6942 127.374592 0.004
GW 233 38 -24.98 -49.9508 129.872133 -24.98 324.6942 129.872133 0.004
GW 234 38 -24.98 -49.9508 132.369675 -24.98 324.6942 132.369675 0.004
GW 235 38 -24.98 -49.9508 134.867217 -24.98 324.6942 134.867217 0.004
GW 236 38 -24.98 -49.9508 137.364758 -24.98 324.6942 137.364758 0.004
GW 237 38 -24.98 -49.9508 139.8623 -24.98 324.6942 139.8623 0.004
GW 238 38 -24.98 -49.9508 142.359842 -24.98 324.6942 142.359842 0.004
GW 239 38 -24.98 -49.9508 144.857383 -24.98 324.6942 144.857383 0.004
GW 240 38 -24.98 -49.9508 147.354925 -24.98 324.6942 147.354925 0.004
GW 241 38 -24.98 -49.9508 149.852467 -24.98 324.6942 149.852467 0.004
GW 242 38 -24.98 -49.9508 152.350008 -24.98 324.6942 152.350008 0.004
GW 243 38 -24.98 -49.9508 154.84755 -24.98 324.6942 154.84755 0.004
GW 244 38 -24.98 -49.9508 157.345092 -24.98 324.6942 157.345092 0.004
GW 245 38 -24.98 -49.9508 159.842633 -24.98 324.6942 159.842633 0.004
GW 246 38 -24.98 -49.9508 162.340175 -24.98 324.6942 162.340175 0.004
GW 247 38 -24.98 -49.9508 164.837717 -24.98 324.6942 164.837717 0.004
GW 248 38 -24.98 -49.9508 167.335258 -24.98 324.6942 167.335258 0.004
GW 249 38 -24.98 -49.9508 169.8328 -24.98 324.6942 169.8328 0.004
GW 250 38 -24.98 -49.9508 172.330342 -24.98 324.6942 172.330342 0.004
GW 251 38 -24.98 -49.9508 174.827883 -24.98 324.6942 174.827883 0.004
GW 252 38 -24.98 -49.9508 177.325425 -24.98 324.6942 177.325425 0.004
GW 253 38 -24.98 -49.9508 179.822967 -24.98 324.6942 179.822967 0.004
GW 254 38 -24.98 -49.9508 182.320508 -24.98 324.6942 182.320508 0.004
GW 255 38 -24.98 -49.9508 184.81805 -24.98 324.6942 184.81805 0.004
GW 256 38 -24.98 -49.9508 187.315592 -24.98 324.6942 187.315592 0.004
GW 257 38 -24.98 -49.9508 189.813133 -24.98 324.6942 189.813133 0.004
GW 258 38 -24.98 -49.9508 192.310675 -24.98 324.6942 192.310675 0.004
GW 259 38 -24.98 -49.9508 194.808217 -24.98 324.6942 194.808217 0.004
GW 260 38 -24.98 -49.9508 197.305758 -24.98 324.6942 197.305758 0.004
GW 261 38 -24.98 -49.9508 199.8033 -24.98 324.6942 199.8033 0.004
GW 262 38 -24.98 -49.9508 202.300842 -24.98 324.6942 202.300842 0.004
GW 263 38 -24.98 -49.9508 204.798383 -24.98 324.6942 204.798383 0.004
GW 264 38 -24.98 -49.9508 207.295925 -24.98 324.6942 207.295925 0.004
GW 265 38 -24.98 -49.9508 209.793467 -24.98 324.6942 209.793467 0.004
GW 266 38 -24.98 -49.9508 212.291008 -24.98 324.6942 212.291008 0.004
GW 267 38 -24.98 -49.9508 214.78855 -24.98 324.6942 214.78855 0.004
GW 268 38 -24.98 -49.9508 217.286092 -24.98 324.6942 217.286092 0.004
GW 269 38 -24.98 -49.9508 219.783633 -24.98 324.6942 219.783633 0.004
GW 270 38 -24.98 -49.9508 222.281175 -24.98 324.6942 222.281175 0.004
GW 271 38 -24.98 -49.9508 224.778717 -24.98 324.6942 224.778717 0.004
GW 272 38 -24.98 -49.9508 227.276258 -24.98 324.6942 227.276258 0.004
GW 273 38 -24.98 -49.9508 229.7738 -24.98 324.6942 229.7738 0.004
GW 274 38 -24.98 -49.9508 232.271342 -24.98 324.6942 232.271342 0.004
GW 275 38 -24.98 -49.9508 234.768883 -24.98 324.6942 234.768883 0.004
GW 276 38 -24.98 -49.9508 237.266425 -24.98 324.6942 237.266425 0.004
GW 277 38 -24.98 -49.9508 239.763967 -24.98 324.6942 239.763967 0.004
GW 278 38 -24.98 -49.9508 242.261508 -24.98 324.6942 242.261508 0.004
GW 279 38 -24.98 -49.9508 244.75905 -24.98 324.6942 244.75905 0.004
GW 280 38 -24.98 -49.9508 247.256592 -24.98 324.6942 247.256592 0.004
GW 281 38 -24.98 -49.9508 249.754133 -24.98 324.6942 249.754133 0.004
GW 282 38 -24.98 -49.9508 252.251675 -24.98 324.6942 252.251675 0.004
GW 283 38 -24.98 -49.9508 254.749217 -24.98 324.6942 254.749217 0.004
GW 284 38 -24.98 -49.9508 257.246758 -24.98 324.6942 257.246758 0.004
GW 285 38 -24.98 -49.9508 259.7443 -24.98 324.6942 259.7443 0.004
GW 286 38 -24.98 -49.9508 262.241842 -24.98 324.6942 262.241842 0.004
GW 287 38 -24.98 -49.9508 264.739383 -24.98 324.6942 264.739383 0.004
GW 288 38 -24.98 -49.9508 267.236925 -24.98 324.6942 267.236925 0.004
GW 289 38 -24.98 -49.9508 269.734467 -24.98 324.6942 269.734467 0.004
GW 290 38 -24.98 -49.9508 272.232008 -24.98 324.6942 272.232008 0.004
GW 291 38 -24.98 -49.9508 274.72955 -24.98 324.6942 274.72955 0.004
GW 292 38 -24.98 -49.9508 277.227092 -24.98 324.6942 277.227092 0.004
GW 293 38 -24.98 -49.9508 279.724633 -24.98 324.6942 279.724633 0.004
GW 294 38 -24.98 -49.9508 282.222175 -24.98 324.6942 282.222175 0.004
GW 295 38 -24.98 -49.9508 284.719717 -24.98 324.6942 284.719717 0.004
GW 296 38 -24.98 -49.9508 287.217258 -24.98 324.6942 287.217258 0.004
GW 297 38 -24.98 -49.9508 289.7148 -24.98 324.6942 289.7148 0.004
GW 298 38 -24.98 -49.9508 292.212342 -24.98 324.6942 292.212342 0.004
GW 299 38 -24.98 -49.9508 294.709883 -24.98 324.6942 294.709883 0.004
GW 300 38 -24.98 -49.9508 297.207425 -24.98 324.6942 297.207425 0.004
GW 401 99 -24.98 -49.9508 297.207425 -24.98 -49.9508 49.9508 0.004
GW 801 7 -24.98 -49.9508 49.9508 -24.98 -49.9508 0 0.004
GW 402 99 -24.98 137.3717 297.207425 -24.98 137.3717 49.9508 0.004
GW 802 7 -24.98 137.3717 49.9508 -24.98 137.3717 0 0.004
GW 403 99 -24.98 324.6942 297.207425 -24.98 324.6942 49.9508 0.004
GW 803 7 -24.98 324.6942 49.9508 -24.98 324.6942 0 0.004
GE 1
EK
TL 101 5 102 5 -50 12
TL 101 5 103 5 -50 12
TL 101 5 104 5 -50 12
TL 101 5 105 5 -50 12
TL 101 5 106 5 -50 12
TL 101 5 107 5 -50 12
TL 101 5 108 5 -50 12
TL 101 5 109 5 -50 12
TL 101 5 110 5 -50 12
TL 101 5 111 5 -50 12
TL 101 5 112 5 -50 12
TL 101 5 113 5 -50 12
TL 101 5 114 5 -50 12
TL 101 5 115 5 -50 12
TL 101 5 116 5 -50 12
LD 5 0 0 0 3.8E7 0
EX 0 101 5 0 1 0
GN 2 0 0 0 13 0.005
FR 0 1 0 0 3.0 0
RP 0 91 360 1001 0. 0. 1. 1.
