CM Curtain Antenna with Aperiodic Screen Reflector ([218] Centre-fed at 13.0 MHz - Aperiodic Screen Reflector) -- AHRS-4-4-1.0
CM - - - created by 'The I.T.S. S.A.G. ver 0.80' on Mon Sep 23 09:37:25 2013
CM  - Wires 101-199 = Array Elements
CM  - Wires 201-399 = Horizontal Screen Elements
CM  - Wires 401-499 = Vertical Screen Elements
CM  - Wires 801-899 = 'Legs' for Vertical Screen Elements
CE
GW 101 9 0.0 0.0 23.054231 0.0 11.527115 23.054231 0.004
GW 102 9 0.0 17.290673 23.054231 0.0 28.817788 23.054231 0.004
GW 103 9 0.0 34.581346 23.054231 0.0 46.108462 23.054231 0.004
GW 104 9 0.0 51.872019 23.054231 0.0 63.399135 23.054231 0.004
GW 105 9 0.0 0.0 34.581346 0.0 11.527115 34.581346 0.004
GW 106 9 0.0 17.290673 34.581346 0.0 28.817788 34.581346 0.004
GW 107 9 0.0 34.581346 34.581346 0.0 46.108462 34.581346 0.004
GW 108 9 0.0 51.872019 34.581346 0.0 63.399135 34.581346 0.004
GW 109 9 0.0 0.0 46.108462 0.0 11.527115 46.108462 0.004
GW 110 9 0.0 17.290673 46.108462 0.0 28.817788 46.108462 0.004
GW 111 9 0.0 34.581346 46.108462 0.0 46.108462 46.108462 0.004
GW 112 9 0.0 51.872019 46.108462 0.0 63.399135 46.108462 0.004
GW 113 9 0.0 0.0 57.635577 0.0 11.527115 57.635577 0.004
GW 114 9 0.0 17.290673 57.635577 0.0 28.817788 57.635577 0.004
GW 115 9 0.0 34.581346 57.635577 0.0 46.108462 57.635577 0.004
GW 116 9 0.0 51.872019 57.635577 0.0 63.399135 57.635577 0.004
GW 201 38 -5.76 -11.5271 11.5271 -5.76 74.9156 11.5271 0.004
GW 202 38 -5.76 -11.5271 12.103456 -5.76 74.9156 12.103456 0.004
GW 203 38 -5.76 -11.5271 12.679812 -5.76 74.9156 12.679812 0.004
GW 204 38 -5.76 -11.5271 13.256167 -5.76 74.9156 13.256167 0.004
GW 205 38 -5.76 -11.5271 13.832523 -5.76 74.9156 13.832523 0.004
GW 206 38 -5.76 -11.5271 14.408879 -5.76 74.9156 14.408879 0.004
GW 207 38 -5.76 -11.5271 14.985235 -5.76 74.9156 14.985235 0.004
GW 208 38 -5.76 -11.5271 15.56159 -5.76 74.9156 15.56159 0.004
GW 209 38 -5.76 -11.5271 16.137946 -5.76 74.9156 16.137946 0.004
GW 210 38 -5.76 -11.5271 16.714302 -5.76 74.9156 16.714302 0.004
GW 211 38 -5.76 -11.5271 17.290658 -5.76 74.9156 17.290658 0.004
GW 212 38 -5.76 -11.5271 17.867013 -5.76 74.9156 17.867013 0.004
GW 213 38 -5.76 -11.5271 18.443369 -5.76 74.9156 18.443369 0.004
GW 214 38 -5.76 -11.5271 19.019725 -5.76 74.9156 19.019725 0.004
GW 215 38 -5.76 -11.5271 19.596081 -5.76 74.9156 19.596081 0.004
GW 216 38 -5.76 -11.5271 20.172437 -5.76 74.9156 20.172437 0.004
GW 217 38 -5.76 -11.5271 20.748792 -5.76 74.9156 20.748792 0.004
GW 218 38 -5.76 -11.5271 21.325148 -5.76 74.9156 21.325148 0.004
GW 219 38 -5.76 -11.5271 21.901504 -5.76 74.9156 21.901504 0.004
GW 220 38 -5.76 -11.5271 22.47786 -5.76 74.9156 22.47786 0.004
GW 221 38 -5.76 -11.5271 23.054215 -5.76 74.9156 23.054215 0.004
GW 222 38 -5.76 -11.5271 23.630571 -5.76 74.9156 23.630571 0.004
GW 223 38 -5.76 -11.5271 24.206927 -5.76 74.9156 24.206927 0.004
GW 224 38 -5.76 -11.5271 24.783283 -5.76 74.9156 24.783283 0.004
GW 225 38 -5.76 -11.5271 25.359638 -5.76 74.9156 25.359638 0.004
GW 226 38 -5.76 -11.5271 25.935994 -5.76 74.9156 25.935994 0.004
GW 227 38 -5.76 -11.5271 26.51235 -5.76 74.9156 26.51235 0.004
GW 228 38 -5.76 -11.5271 27.088706 -5.76 74.9156 27.088706 0.004
GW 229 38 -5.76 -11.5271 27.665062 -5.76 74.9156 27.665062 0.004
GW 230 38 -5.76 -11.5271 28.241417 -5.76 74.9156 28.241417 0.004
GW 231 38 -5.76 -11.5271 28.817773 -5.76 74.9156 28.817773 0.004
GW 232 38 -5.76 -11.5271 29.394129 -5.76 74.9156 29.394129 0.004
GW 233 38 -5.76 -11.5271 29.970485 -5.76 74.9156 29.970485 0.004
GW 234 38 -5.76 -11.5271 30.54684 -5.76 74.9156 30.54684 0.004
GW 235 38 -5.76 -11.5271 31.123196 -5.76 74.9156 31.123196 0.004
GW 236 38 -5.76 -11.5271 31.699552 -5.76 74.9156 31.699552 0.004
GW 237 38 -5.76 -11.5271 32.275908 -5.76 74.9156 32.275908 0.004
GW 238 38 -5.76 -11.5271 32.852263 -5.76 74.9156 32.852263 0.004
GW 239 38 -5.76 -11.5271 33.428619 -5.76 74.9156 33.428619 0.004
GW 240 38 -5.76 -11.5271 34.004975 -5.76 74.9156 34.004975 0.004
GW 241 38 -5.76 -11.5271 34.581331 -5.76 74.9156 34.581331 0.004
GW 242 38 -5.76 -11.5271 35.157687 -5.76 74.9156 35.157687 0.004
GW 243 38 -5.76 -11.5271 35.734042 -5.76 74.9156 35.734042 0.004
GW 244 38 -5.76 -11.5271 36.310398 -5.76 74.9156 36.310398 0.004
GW 245 38 -5.76 -11.5271 36.886754 -5.76 74.9156 36.886754 0.004
GW 246 38 -5.76 -11.5271 37.46311 -5.76 74.9156 37.46311 0.004
GW 247 38 -5.76 -11.5271 38.039465 -5.76 74.9156 38.039465 0.004
GW 248 38 -5.76 -11.5271 38.615821 -5.76 74.9156 38.615821 0.004
GW 249 38 -5.76 -11.5271 39.192177 -5.76 74.9156 39.192177 0.004
GW 250 38 -5.76 -11.5271 39.768533 -5.76 74.9156 39.768533 0.004
GW 251 38 -5.76 -11.5271 40.344888 -5.76 74.9156 40.344888 0.004
GW 252 38 -5.76 -11.5271 40.921244 -5.76 74.9156 40.921244 0.004
GW 253 38 -5.76 -11.5271 41.4976 -5.76 74.9156 41.4976 0.004
GW 254 38 -5.76 -11.5271 42.073956 -5.76 74.9156 42.073956 0.004
GW 255 38 -5.76 -11.5271 42.650312 -5.76 74.9156 42.650312 0.004
GW 256 38 -5.76 -11.5271 43.226667 -5.76 74.9156 43.226667 0.004
GW 257 38 -5.76 -11.5271 43.803023 -5.76 74.9156 43.803023 0.004
GW 258 38 -5.76 -11.5271 44.379379 -5.76 74.9156 44.379379 0.004
GW 259 38 -5.76 -11.5271 44.955735 -5.76 74.9156 44.955735 0.004
GW 260 38 -5.76 -11.5271 45.53209 -5.76 74.9156 45.53209 0.004
GW 261 38 -5.76 -11.5271 46.108446 -5.76 74.9156 46.108446 0.004
GW 262 38 -5.76 -11.5271 46.684802 -5.76 74.9156 46.684802 0.004
GW 263 38 -5.76 -11.5271 47.261158 -5.76 74.9156 47.261158 0.004
GW 264 38 -5.76 -11.5271 47.837513 -5.76 74.9156 47.837513 0.004
GW 265 38 -5.76 -11.5271 48.413869 -5.76 74.9156 48.413869 0.004
GW 266 38 -5.76 -11.5271 48.990225 -5.76 74.9156 48.990225 0.004
GW 267 38 -5.76 -11.5271 49.566581 -5.76 74.9156 49.566581 0.004
GW 268 38 -5.76 -11.5271 50.142937 -5.76 74.9156 50.142937 0.004
GW 269 38 -5.76 -11.5271 50.719292 -5.76 74.9156 50.719292 0.004
GW 270 38 -5.76 -11.5271 51.295648 -5.76 74.9156 51.295648 0.004
GW 271 38 -5.76 -11.5271 51.872004 -5.76 74.9156 51.872004 0.004
GW 272 38 -5.76 -11.5271 52.44836 -5.76 74.9156 52.44836 0.004
GW 273 38 -5.76 -11.5271 53.024715 -5.76 74.9156 53.024715 0.004
GW 274 38 -5.76 -11.5271 53.601071 -5.76 74.9156 53.601071 0.004
GW 275 38 -5.76 -11.5271 54.177427 -5.76 74.9156 54.177427 0.004
GW 276 38 -5.76 -11.5271 54.753783 -5.76 74.9156 54.753783 0.004
GW 277 38 -5.76 -11.5271 55.330138 -5.76 74.9156 55.330138 0.004
GW 278 38 -5.76 -11.5271 55.906494 -5.76 74.9156 55.906494 0.004
GW 279 38 -5.76 -11.5271 56.48285 -5.76 74.9156 56.48285 0.004
GW 280 38 -5.76 -11.5271 57.059206 -5.76 74.9156 57.059206 0.004
GW 281 38 -5.76 -11.5271 57.635562 -5.76 74.9156 57.635562 0.004
GW 282 38 -5.76 -11.5271 58.211917 -5.76 74.9156 58.211917 0.004
GW 283 38 -5.76 -11.5271 58.788273 -5.76 74.9156 58.788273 0.004
GW 284 38 -5.76 -11.5271 59.364629 -5.76 74.9156 59.364629 0.004
GW 285 38 -5.76 -11.5271 59.940985 -5.76 74.9156 59.940985 0.004
GW 286 38 -5.76 -11.5271 60.51734 -5.76 74.9156 60.51734 0.004
GW 287 38 -5.76 -11.5271 61.093696 -5.76 74.9156 61.093696 0.004
GW 288 38 -5.76 -11.5271 61.670052 -5.76 74.9156 61.670052 0.004
GW 289 38 -5.76 -11.5271 62.246408 -5.76 74.9156 62.246408 0.004
GW 290 38 -5.76 -11.5271 62.822763 -5.76 74.9156 62.822763 0.004
GW 291 38 -5.76 -11.5271 63.399119 -5.76 74.9156 63.399119 0.004
GW 292 38 -5.76 -11.5271 63.975475 -5.76 74.9156 63.975475 0.004
GW 293 38 -5.76 -11.5271 64.551831 -5.76 74.9156 64.551831 0.004
GW 294 38 -5.76 -11.5271 65.128187 -5.76 74.9156 65.128187 0.004
GW 295 38 -5.76 -11.5271 65.704542 -5.76 74.9156 65.704542 0.004
GW 296 38 -5.76 -11.5271 66.280898 -5.76 74.9156 66.280898 0.004
GW 297 38 -5.76 -11.5271 66.857254 -5.76 74.9156 66.857254 0.004
GW 298 38 -5.76 -11.5271 67.43361 -5.76 74.9156 67.43361 0.004
GW 299 38 -5.76 -11.5271 68.009965 -5.76 74.9156 68.009965 0.004
GW 300 38 -5.76 -11.5271 68.586321 -5.76 74.9156 68.586321 0.004
GW 301 38 -5.76 -11.5271 69.162677 -5.76 74.9156 69.162677 0.004
GW 401 100 -5.76 -11.5271 69.162677 -5.76 -11.5271 11.5271 0.004
GW 801 7 -5.76 -11.5271 11.5271 -5.76 -11.5271 0 0.004
GW 402 100 -5.76 31.69425 69.162677 -5.76 31.69425 11.5271 0.004
GW 802 7 -5.76 31.69425 11.5271 -5.76 31.69425 0 0.004
GW 403 100 -5.76 74.9156 69.162677 -5.76 74.9156 11.5271 0.004
GW 803 7 -5.76 74.9156 11.5271 -5.76 74.9156 0 0.004
GE 1
EK
TL 101 5 102 5 -50 12
TL 101 5 103 5 -50 12
TL 101 5 104 5 -50 12
TL 101 5 105 5 -50 12
TL 101 5 106 5 -50 12
TL 101 5 107 5 -50 12
TL 101 5 108 5 -50 12
TL 101 5 109 5 -50 12
TL 101 5 110 5 -50 12
TL 101 5 111 5 -50 12
TL 101 5 112 5 -50 12
TL 101 5 113 5 -50 12
TL 101 5 114 5 -50 12
TL 101 5 115 5 -50 12
TL 101 5 116 5 -50 12
LD 5 0 0 0 3.8E7 0
EX 0 101 5 0 1 0
GN 2 0 0 0 13 0.005
FR 0 1 0 0 13.0 0
RP 0 91 360 1001 0. 0. 1. 1.
