CM Curtain Antenna with Aperiodic Screen Reflector ([158] Centre-fed at 8.0 MHz - Aperiodic Screen Reflector) -- AHRS-2-4-1.0
CM - - - created by 'The I.T.S. S.A.G. ver 0.80' on Mon Sep 23 09:37:25 2013
CM  - Wires 101-199 = Array Elements
CM  - Wires 201-399 = Horizontal Screen Elements
CM  - Wires 401-499 = Vertical Screen Elements
CM  - Wires 801-899 = 'Legs' for Vertical Screen Elements
CE
GW 101 9 0.0 0.0 37.463125 0.0 18.731562 37.463125 0.004
GW 102 9 0.0 28.097344 37.463125 0.0 46.828906 37.463125 0.004
GW 103 9 0.0 0.0 56.194688 0.0 18.731562 56.194688 0.004
GW 104 9 0.0 28.097344 56.194688 0.0 46.828906 56.194688 0.004
GW 105 9 0.0 0.0 74.92625 0.0 18.731562 74.92625 0.004
GW 106 9 0.0 28.097344 74.92625 0.0 46.828906 74.92625 0.004
GW 107 9 0.0 0.0 93.657813 0.0 18.731562 93.657813 0.004
GW 108 9 0.0 28.097344 93.657813 0.0 46.828906 93.657813 0.004
GW 201 24 -9.37 -18.7316 18.7316 -9.37 65.5647 18.7316 0.004
GW 202 24 -9.37 -18.7316 19.668178 -9.37 65.5647 19.668178 0.004
GW 203 24 -9.37 -18.7316 20.604756 -9.37 65.5647 20.604756 0.004
GW 204 24 -9.37 -18.7316 21.541334 -9.37 65.5647 21.541334 0.004
GW 205 24 -9.37 -18.7316 22.477913 -9.37 65.5647 22.477913 0.004
GW 206 24 -9.37 -18.7316 23.414491 -9.37 65.5647 23.414491 0.004
GW 207 24 -9.37 -18.7316 24.351069 -9.37 65.5647 24.351069 0.004
GW 208 24 -9.37 -18.7316 25.287647 -9.37 65.5647 25.287647 0.004
GW 209 24 -9.37 -18.7316 26.224225 -9.37 65.5647 26.224225 0.004
GW 210 24 -9.37 -18.7316 27.160803 -9.37 65.5647 27.160803 0.004
GW 211 24 -9.37 -18.7316 28.097381 -9.37 65.5647 28.097381 0.004
GW 212 24 -9.37 -18.7316 29.033959 -9.37 65.5647 29.033959 0.004
GW 213 24 -9.37 -18.7316 29.970537 -9.37 65.5647 29.970537 0.004
GW 214 24 -9.37 -18.7316 30.907116 -9.37 65.5647 30.907116 0.004
GW 215 24 -9.37 -18.7316 31.843694 -9.37 65.5647 31.843694 0.004
GW 216 24 -9.37 -18.7316 32.780272 -9.37 65.5647 32.780272 0.004
GW 217 24 -9.37 -18.7316 33.71685 -9.37 65.5647 33.71685 0.004
GW 218 24 -9.37 -18.7316 34.653428 -9.37 65.5647 34.653428 0.004
GW 219 24 -9.37 -18.7316 35.590006 -9.37 65.5647 35.590006 0.004
GW 220 24 -9.37 -18.7316 36.526584 -9.37 65.5647 36.526584 0.004
GW 221 24 -9.37 -18.7316 37.463163 -9.37 65.5647 37.463163 0.004
GW 222 24 -9.37 -18.7316 38.399741 -9.37 65.5647 38.399741 0.004
GW 223 24 -9.37 -18.7316 39.336319 -9.37 65.5647 39.336319 0.004
GW 224 24 -9.37 -18.7316 40.272897 -9.37 65.5647 40.272897 0.004
GW 225 24 -9.37 -18.7316 41.209475 -9.37 65.5647 41.209475 0.004
GW 226 24 -9.37 -18.7316 42.146053 -9.37 65.5647 42.146053 0.004
GW 227 24 -9.37 -18.7316 43.082631 -9.37 65.5647 43.082631 0.004
GW 228 24 -9.37 -18.7316 44.019209 -9.37 65.5647 44.019209 0.004
GW 229 24 -9.37 -18.7316 44.955787 -9.37 65.5647 44.955787 0.004
GW 230 24 -9.37 -18.7316 45.892366 -9.37 65.5647 45.892366 0.004
GW 231 24 -9.37 -18.7316 46.828944 -9.37 65.5647 46.828944 0.004
GW 232 24 -9.37 -18.7316 47.765522 -9.37 65.5647 47.765522 0.004
GW 233 24 -9.37 -18.7316 48.7021 -9.37 65.5647 48.7021 0.004
GW 234 24 -9.37 -18.7316 49.638678 -9.37 65.5647 49.638678 0.004
GW 235 24 -9.37 -18.7316 50.575256 -9.37 65.5647 50.575256 0.004
GW 236 24 -9.37 -18.7316 51.511834 -9.37 65.5647 51.511834 0.004
GW 237 24 -9.37 -18.7316 52.448413 -9.37 65.5647 52.448413 0.004
GW 238 24 -9.37 -18.7316 53.384991 -9.37 65.5647 53.384991 0.004
GW 239 24 -9.37 -18.7316 54.321569 -9.37 65.5647 54.321569 0.004
GW 240 24 -9.37 -18.7316 55.258147 -9.37 65.5647 55.258147 0.004
GW 241 24 -9.37 -18.7316 56.194725 -9.37 65.5647 56.194725 0.004
GW 242 24 -9.37 -18.7316 57.131303 -9.37 65.5647 57.131303 0.004
GW 243 24 -9.37 -18.7316 58.067881 -9.37 65.5647 58.067881 0.004
GW 244 24 -9.37 -18.7316 59.004459 -9.37 65.5647 59.004459 0.004
GW 245 24 -9.37 -18.7316 59.941038 -9.37 65.5647 59.941038 0.004
GW 246 24 -9.37 -18.7316 60.877616 -9.37 65.5647 60.877616 0.004
GW 247 24 -9.37 -18.7316 61.814194 -9.37 65.5647 61.814194 0.004
GW 248 24 -9.37 -18.7316 62.750772 -9.37 65.5647 62.750772 0.004
GW 249 24 -9.37 -18.7316 63.68735 -9.37 65.5647 63.68735 0.004
GW 250 24 -9.37 -18.7316 64.623928 -9.37 65.5647 64.623928 0.004
GW 251 24 -9.37 -18.7316 65.560506 -9.37 65.5647 65.560506 0.004
GW 252 24 -9.37 -18.7316 66.497084 -9.37 65.5647 66.497084 0.004
GW 253 24 -9.37 -18.7316 67.433662 -9.37 65.5647 67.433662 0.004
GW 254 24 -9.37 -18.7316 68.370241 -9.37 65.5647 68.370241 0.004
GW 255 24 -9.37 -18.7316 69.306819 -9.37 65.5647 69.306819 0.004
GW 256 24 -9.37 -18.7316 70.243397 -9.37 65.5647 70.243397 0.004
GW 257 24 -9.37 -18.7316 71.179975 -9.37 65.5647 71.179975 0.004
GW 258 24 -9.37 -18.7316 72.116553 -9.37 65.5647 72.116553 0.004
GW 259 24 -9.37 -18.7316 73.053131 -9.37 65.5647 73.053131 0.004
GW 260 24 -9.37 -18.7316 73.989709 -9.37 65.5647 73.989709 0.004
GW 261 24 -9.37 -18.7316 74.926288 -9.37 65.5647 74.926288 0.004
GW 262 24 -9.37 -18.7316 75.862866 -9.37 65.5647 75.862866 0.004
GW 263 24 -9.37 -18.7316 76.799444 -9.37 65.5647 76.799444 0.004
GW 264 24 -9.37 -18.7316 77.736022 -9.37 65.5647 77.736022 0.004
GW 265 24 -9.37 -18.7316 78.6726 -9.37 65.5647 78.6726 0.004
GW 266 24 -9.37 -18.7316 79.609178 -9.37 65.5647 79.609178 0.004
GW 267 24 -9.37 -18.7316 80.545756 -9.37 65.5647 80.545756 0.004
GW 268 24 -9.37 -18.7316 81.482334 -9.37 65.5647 81.482334 0.004
GW 269 24 -9.37 -18.7316 82.418913 -9.37 65.5647 82.418913 0.004
GW 270 24 -9.37 -18.7316 83.355491 -9.37 65.5647 83.355491 0.004
GW 271 24 -9.37 -18.7316 84.292069 -9.37 65.5647 84.292069 0.004
GW 272 24 -9.37 -18.7316 85.228647 -9.37 65.5647 85.228647 0.004
GW 273 24 -9.37 -18.7316 86.165225 -9.37 65.5647 86.165225 0.004
GW 274 24 -9.37 -18.7316 87.101803 -9.37 65.5647 87.101803 0.004
GW 275 24 -9.37 -18.7316 88.038381 -9.37 65.5647 88.038381 0.004
GW 276 24 -9.37 -18.7316 88.974959 -9.37 65.5647 88.974959 0.004
GW 277 24 -9.37 -18.7316 89.911538 -9.37 65.5647 89.911538 0.004
GW 278 24 -9.37 -18.7316 90.848116 -9.37 65.5647 90.848116 0.004
GW 279 24 -9.37 -18.7316 91.784694 -9.37 65.5647 91.784694 0.004
GW 280 24 -9.37 -18.7316 92.721272 -9.37 65.5647 92.721272 0.004
GW 281 24 -9.37 -18.7316 93.65785 -9.37 65.5647 93.65785 0.004
GW 282 24 -9.37 -18.7316 94.594428 -9.37 65.5647 94.594428 0.004
GW 283 24 -9.37 -18.7316 95.531006 -9.37 65.5647 95.531006 0.004
GW 284 24 -9.37 -18.7316 96.467584 -9.37 65.5647 96.467584 0.004
GW 285 24 -9.37 -18.7316 97.404162 -9.37 65.5647 97.404162 0.004
GW 286 24 -9.37 -18.7316 98.340741 -9.37 65.5647 98.340741 0.004
GW 287 24 -9.37 -18.7316 99.277319 -9.37 65.5647 99.277319 0.004
GW 288 24 -9.37 -18.7316 100.213897 -9.37 65.5647 100.213897 0.004
GW 289 24 -9.37 -18.7316 101.150475 -9.37 65.5647 101.150475 0.004
GW 290 24 -9.37 -18.7316 102.087053 -9.37 65.5647 102.087053 0.004
GW 291 24 -9.37 -18.7316 103.023631 -9.37 65.5647 103.023631 0.004
GW 292 24 -9.37 -18.7316 103.960209 -9.37 65.5647 103.960209 0.004
GW 293 24 -9.37 -18.7316 104.896788 -9.37 65.5647 104.896788 0.004
GW 294 24 -9.37 -18.7316 105.833366 -9.37 65.5647 105.833366 0.004
GW 295 24 -9.37 -18.7316 106.769944 -9.37 65.5647 106.769944 0.004
GW 296 24 -9.37 -18.7316 107.706522 -9.37 65.5647 107.706522 0.004
GW 297 24 -9.37 -18.7316 108.6431 -9.37 65.5647 108.6431 0.004
GW 298 24 -9.37 -18.7316 109.579678 -9.37 65.5647 109.579678 0.004
GW 299 24 -9.37 -18.7316 110.516256 -9.37 65.5647 110.516256 0.004
GW 300 24 -9.37 -18.7316 111.452834 -9.37 65.5647 111.452834 0.004
GW 401 99 -9.37 -18.7316 111.452834 -9.37 -18.7316 18.7316 0.004
GW 801 8 -9.37 -18.7316 18.7316 -9.37 -18.7316 0 0.004
GW 402 99 -9.37 23.41655 111.452834 -9.37 23.41655 18.7316 0.004
GW 802 8 -9.37 23.41655 18.7316 -9.37 23.41655 0 0.004
GW 403 99 -9.37 65.5647 111.452834 -9.37 65.5647 18.7316 0.004
GW 803 8 -9.37 65.5647 18.7316 -9.37 65.5647 0 0.004
GE 1
EK
TL 101 5 102 5 -50 9
TL 101 5 103 5 -50 9
TL 101 5 104 5 -50 9
TL 101 5 105 5 -50 9
TL 101 5 106 5 -50 9
TL 101 5 107 5 -50 9
TL 101 5 108 5 -50 9
LD 5 0 0 0 3.8E7 0
EX 0 101 5 0 1 0
GN 2 0 0 0 13 0.005
FR 0 1 0 0 8.0 0
RP 0 91 360 1001 0. 0. 1. 1.
