CM Curtain Antenna with Aperiodic Screen Reflector ([146] Centre-fed at 29.0 MHz - Aperiodic Screen Reflector) -- AHRS-2-2-0.5
CM - - - created by 'The I.T.S. S.A.G. ver 0.80' on Mon Sep 23 09:37:25 2013
CM  - Wires 101-199 = Array Elements
CM  - Wires 201-399 = Horizontal Screen Elements
CM  - Wires 401-499 = Vertical Screen Elements
CM  - Wires 801-899 = 'Legs' for Vertical Screen Elements
CE
GW 101 9 0.0 0.0 5.167328 0.0 5.167328 5.167328 0.004
GW 102 9 0.0 7.750991 5.167328 0.0 12.918319 5.167328 0.004
GW 103 9 0.0 0.0 10.334655 0.0 5.167328 10.334655 0.004
GW 104 9 0.0 7.750991 10.334655 0.0 12.918319 10.334655 0.004
GW 201 24 -2.58 -5.1673 1.0335 -2.58 18.082 1.0335 0.004
GW 202 24 -2.58 -5.1673 1.291866 -2.58 18.082 1.291866 0.004
GW 203 24 -2.58 -5.1673 1.550233 -2.58 18.082 1.550233 0.004
GW 204 24 -2.58 -5.1673 1.808599 -2.58 18.082 1.808599 0.004
GW 205 24 -2.58 -5.1673 2.066966 -2.58 18.082 2.066966 0.004
GW 206 24 -2.58 -5.1673 2.325332 -2.58 18.082 2.325332 0.004
GW 207 24 -2.58 -5.1673 2.583698 -2.58 18.082 2.583698 0.004
GW 208 24 -2.58 -5.1673 2.842065 -2.58 18.082 2.842065 0.004
GW 209 24 -2.58 -5.1673 3.100431 -2.58 18.082 3.100431 0.004
GW 210 24 -2.58 -5.1673 3.358797 -2.58 18.082 3.358797 0.004
GW 211 24 -2.58 -5.1673 3.617164 -2.58 18.082 3.617164 0.004
GW 212 24 -2.58 -5.1673 3.87553 -2.58 18.082 3.87553 0.004
GW 213 24 -2.58 -5.1673 4.133897 -2.58 18.082 4.133897 0.004
GW 214 24 -2.58 -5.1673 4.392263 -2.58 18.082 4.392263 0.004
GW 215 24 -2.58 -5.1673 4.650629 -2.58 18.082 4.650629 0.004
GW 216 24 -2.58 -5.1673 4.908996 -2.58 18.082 4.908996 0.004
GW 217 24 -2.58 -5.1673 5.167362 -2.58 18.082 5.167362 0.004
GW 218 24 -2.58 -5.1673 5.425728 -2.58 18.082 5.425728 0.004
GW 219 24 -2.58 -5.1673 5.684095 -2.58 18.082 5.684095 0.004
GW 220 24 -2.58 -5.1673 5.942461 -2.58 18.082 5.942461 0.004
GW 221 24 -2.58 -5.1673 6.200828 -2.58 18.082 6.200828 0.004
GW 222 24 -2.58 -5.1673 6.459194 -2.58 18.082 6.459194 0.004
GW 223 24 -2.58 -5.1673 6.71756 -2.58 18.082 6.71756 0.004
GW 224 24 -2.58 -5.1673 6.975927 -2.58 18.082 6.975927 0.004
GW 225 24 -2.58 -5.1673 7.234293 -2.58 18.082 7.234293 0.004
GW 226 24 -2.58 -5.1673 7.492659 -2.58 18.082 7.492659 0.004
GW 227 24 -2.58 -5.1673 7.751026 -2.58 18.082 7.751026 0.004
GW 228 24 -2.58 -5.1673 8.009392 -2.58 18.082 8.009392 0.004
GW 229 24 -2.58 -5.1673 8.267759 -2.58 18.082 8.267759 0.004
GW 230 24 -2.58 -5.1673 8.526125 -2.58 18.082 8.526125 0.004
GW 231 24 -2.58 -5.1673 8.784491 -2.58 18.082 8.784491 0.004
GW 232 24 -2.58 -5.1673 9.042858 -2.58 18.082 9.042858 0.004
GW 233 24 -2.58 -5.1673 9.301224 -2.58 18.082 9.301224 0.004
GW 234 24 -2.58 -5.1673 9.559591 -2.58 18.082 9.559591 0.004
GW 235 24 -2.58 -5.1673 9.817957 -2.58 18.082 9.817957 0.004
GW 236 24 -2.58 -5.1673 10.076323 -2.58 18.082 10.076323 0.004
GW 237 24 -2.58 -5.1673 10.33469 -2.58 18.082 10.33469 0.004
GW 238 24 -2.58 -5.1673 10.593056 -2.58 18.082 10.593056 0.004
GW 239 24 -2.58 -5.1673 10.851422 -2.58 18.082 10.851422 0.004
GW 240 24 -2.58 -5.1673 11.109789 -2.58 18.082 11.109789 0.004
GW 241 24 -2.58 -5.1673 11.368155 -2.58 18.082 11.368155 0.004
GW 242 24 -2.58 -5.1673 11.626522 -2.58 18.082 11.626522 0.004
GW 243 24 -2.58 -5.1673 11.884888 -2.58 18.082 11.884888 0.004
GW 244 24 -2.58 -5.1673 12.143254 -2.58 18.082 12.143254 0.004
GW 245 24 -2.58 -5.1673 12.401621 -2.58 18.082 12.401621 0.004
GW 246 24 -2.58 -5.1673 12.659987 -2.58 18.082 12.659987 0.004
GW 247 24 -2.58 -5.1673 12.918353 -2.58 18.082 12.918353 0.004
GW 248 24 -2.58 -5.1673 13.17672 -2.58 18.082 13.17672 0.004
GW 249 24 -2.58 -5.1673 13.435086 -2.58 18.082 13.435086 0.004
GW 250 24 -2.58 -5.1673 13.693453 -2.58 18.082 13.693453 0.004
GW 251 24 -2.58 -5.1673 13.951819 -2.58 18.082 13.951819 0.004
GW 252 24 -2.58 -5.1673 14.210185 -2.58 18.082 14.210185 0.004
GW 253 24 -2.58 -5.1673 14.468552 -2.58 18.082 14.468552 0.004
GW 254 24 -2.58 -5.1673 14.726918 -2.58 18.082 14.726918 0.004
GW 255 24 -2.58 -5.1673 14.985284 -2.58 18.082 14.985284 0.004
GW 256 24 -2.58 -5.1673 15.243651 -2.58 18.082 15.243651 0.004
GW 257 24 -2.58 -5.1673 15.502017 -2.58 18.082 15.502017 0.004
GW 258 24 -2.58 -5.1673 15.760384 -2.58 18.082 15.760384 0.004
GW 259 24 -2.58 -5.1673 16.01875 -2.58 18.082 16.01875 0.004
GW 260 24 -2.58 -5.1673 16.277116 -2.58 18.082 16.277116 0.004
GW 261 24 -2.58 -5.1673 16.535483 -2.58 18.082 16.535483 0.004
GW 401 60 -2.58 -5.1673 16.535483 -2.58 -5.1673 1.0335 0.004
GW 801 1 -2.58 -5.1673 1.0335 -2.58 -5.1673 0 0.004
GW 402 60 -2.58 6.45735 16.535483 -2.58 6.45735 1.0335 0.004
GW 802 1 -2.58 6.45735 1.0335 -2.58 6.45735 0 0.004
GW 403 60 -2.58 18.082 16.535483 -2.58 18.082 1.0335 0.004
GW 803 1 -2.58 18.082 1.0335 -2.58 18.082 0 0.004
GE 1
EK
TL 101 5 102 5 -50 6
TL 101 5 103 5 -50 6
TL 101 5 104 5 -50 6
LD 5 0 0 0 3.8E7 0
EX 0 101 5 0 1 0
GN 2 0 0 0 13 0.005
FR 0 1 0 0 29.0 0
RP 0 91 360 1001 0. 0. 1. 1.
