CM Curtain Antenna with Aperiodic Screen Reflector ([208] Centre-fed at 16.0 MHz - Aperiodic Screen Reflector) -- AHRS-4-2-1.0
CM - - - created by 'The I.T.S. S.A.G. ver 0.80' on Mon Sep 23 09:37:25 2013
CM  - Wires 101-199 = Array Elements
CM  - Wires 201-399 = Horizontal Screen Elements
CM  - Wires 401-499 = Vertical Screen Elements
CM  - Wires 801-899 = 'Legs' for Vertical Screen Elements
CE
GW 101 9 0.0 0.0 18.731562 0.0 9.365781 18.731562 0.004
GW 102 9 0.0 14.048672 18.731562 0.0 23.414453 18.731562 0.004
GW 103 9 0.0 28.097344 18.731562 0.0 37.463125 18.731562 0.004
GW 104 9 0.0 42.146016 18.731562 0.0 51.511797 18.731562 0.004
GW 105 9 0.0 0.0 28.097344 0.0 9.365781 28.097344 0.004
GW 106 9 0.0 14.048672 28.097344 0.0 23.414453 28.097344 0.004
GW 107 9 0.0 28.097344 28.097344 0.0 37.463125 28.097344 0.004
GW 108 9 0.0 42.146016 28.097344 0.0 51.511797 28.097344 0.004
GW 201 38 -4.68 -9.3658 9.3658 -4.68 60.8689 9.3658 0.004
GW 202 38 -4.68 -9.3658 9.834089 -4.68 60.8689 9.834089 0.004
GW 203 38 -4.68 -9.3658 10.302378 -4.68 60.8689 10.302378 0.004
GW 204 38 -4.68 -9.3658 10.770667 -4.68 60.8689 10.770667 0.004
GW 205 38 -4.68 -9.3658 11.238956 -4.68 60.8689 11.238956 0.004
GW 206 38 -4.68 -9.3658 11.707245 -4.68 60.8689 11.707245 0.004
GW 207 38 -4.68 -9.3658 12.175534 -4.68 60.8689 12.175534 0.004
GW 208 38 -4.68 -9.3658 12.643823 -4.68 60.8689 12.643823 0.004
GW 209 38 -4.68 -9.3658 13.112113 -4.68 60.8689 13.112113 0.004
GW 210 38 -4.68 -9.3658 13.580402 -4.68 60.8689 13.580402 0.004
GW 211 38 -4.68 -9.3658 14.048691 -4.68 60.8689 14.048691 0.004
GW 212 38 -4.68 -9.3658 14.51698 -4.68 60.8689 14.51698 0.004
GW 213 38 -4.68 -9.3658 14.985269 -4.68 60.8689 14.985269 0.004
GW 214 38 -4.68 -9.3658 15.453558 -4.68 60.8689 15.453558 0.004
GW 215 38 -4.68 -9.3658 15.921847 -4.68 60.8689 15.921847 0.004
GW 216 38 -4.68 -9.3658 16.390136 -4.68 60.8689 16.390136 0.004
GW 217 38 -4.68 -9.3658 16.858425 -4.68 60.8689 16.858425 0.004
GW 218 38 -4.68 -9.3658 17.326714 -4.68 60.8689 17.326714 0.004
GW 219 38 -4.68 -9.3658 17.795003 -4.68 60.8689 17.795003 0.004
GW 220 38 -4.68 -9.3658 18.263292 -4.68 60.8689 18.263292 0.004
GW 221 38 -4.68 -9.3658 18.731581 -4.68 60.8689 18.731581 0.004
GW 222 38 -4.68 -9.3658 19.19987 -4.68 60.8689 19.19987 0.004
GW 223 38 -4.68 -9.3658 19.668159 -4.68 60.8689 19.668159 0.004
GW 224 38 -4.68 -9.3658 20.136448 -4.68 60.8689 20.136448 0.004
GW 225 38 -4.68 -9.3658 20.604737 -4.68 60.8689 20.604737 0.004
GW 226 38 -4.68 -9.3658 21.073027 -4.68 60.8689 21.073027 0.004
GW 227 38 -4.68 -9.3658 21.541316 -4.68 60.8689 21.541316 0.004
GW 228 38 -4.68 -9.3658 22.009605 -4.68 60.8689 22.009605 0.004
GW 229 38 -4.68 -9.3658 22.477894 -4.68 60.8689 22.477894 0.004
GW 230 38 -4.68 -9.3658 22.946183 -4.68 60.8689 22.946183 0.004
GW 231 38 -4.68 -9.3658 23.414472 -4.68 60.8689 23.414472 0.004
GW 232 38 -4.68 -9.3658 23.882761 -4.68 60.8689 23.882761 0.004
GW 233 38 -4.68 -9.3658 24.35105 -4.68 60.8689 24.35105 0.004
GW 234 38 -4.68 -9.3658 24.819339 -4.68 60.8689 24.819339 0.004
GW 235 38 -4.68 -9.3658 25.287628 -4.68 60.8689 25.287628 0.004
GW 236 38 -4.68 -9.3658 25.755917 -4.68 60.8689 25.755917 0.004
GW 237 38 -4.68 -9.3658 26.224206 -4.68 60.8689 26.224206 0.004
GW 238 38 -4.68 -9.3658 26.692495 -4.68 60.8689 26.692495 0.004
GW 239 38 -4.68 -9.3658 27.160784 -4.68 60.8689 27.160784 0.004
GW 240 38 -4.68 -9.3658 27.629073 -4.68 60.8689 27.629073 0.004
GW 241 38 -4.68 -9.3658 28.097363 -4.68 60.8689 28.097363 0.004
GW 242 38 -4.68 -9.3658 28.565652 -4.68 60.8689 28.565652 0.004
GW 243 38 -4.68 -9.3658 29.033941 -4.68 60.8689 29.033941 0.004
GW 244 38 -4.68 -9.3658 29.50223 -4.68 60.8689 29.50223 0.004
GW 245 38 -4.68 -9.3658 29.970519 -4.68 60.8689 29.970519 0.004
GW 246 38 -4.68 -9.3658 30.438808 -4.68 60.8689 30.438808 0.004
GW 247 38 -4.68 -9.3658 30.907097 -4.68 60.8689 30.907097 0.004
GW 248 38 -4.68 -9.3658 31.375386 -4.68 60.8689 31.375386 0.004
GW 249 38 -4.68 -9.3658 31.843675 -4.68 60.8689 31.843675 0.004
GW 250 38 -4.68 -9.3658 32.311964 -4.68 60.8689 32.311964 0.004
GW 251 38 -4.68 -9.3658 32.780253 -4.68 60.8689 32.780253 0.004
GW 252 38 -4.68 -9.3658 33.248542 -4.68 60.8689 33.248542 0.004
GW 253 38 -4.68 -9.3658 33.716831 -4.68 60.8689 33.716831 0.004
GW 254 38 -4.68 -9.3658 34.18512 -4.68 60.8689 34.18512 0.004
GW 255 38 -4.68 -9.3658 34.653409 -4.68 60.8689 34.653409 0.004
GW 256 38 -4.68 -9.3658 35.121698 -4.68 60.8689 35.121698 0.004
GW 257 38 -4.68 -9.3658 35.589987 -4.68 60.8689 35.589987 0.004
GW 258 38 -4.68 -9.3658 36.058277 -4.68 60.8689 36.058277 0.004
GW 259 38 -4.68 -9.3658 36.526566 -4.68 60.8689 36.526566 0.004
GW 260 38 -4.68 -9.3658 36.994855 -4.68 60.8689 36.994855 0.004
GW 261 38 -4.68 -9.3658 37.463144 -4.68 60.8689 37.463144 0.004
GW 401 60 -4.68 -9.3658 37.463144 -4.68 -9.3658 9.3658 0.004
GW 801 8 -4.68 -9.3658 9.3658 -4.68 -9.3658 0 0.004
GW 402 60 -4.68 25.75155 37.463144 -4.68 25.75155 9.3658 0.004
GW 802 8 -4.68 25.75155 9.3658 -4.68 25.75155 0 0.004
GW 403 60 -4.68 60.8689 37.463144 -4.68 60.8689 9.3658 0.004
GW 803 8 -4.68 60.8689 9.3658 -4.68 60.8689 0 0.004
GE 1
EK
TL 101 5 102 5 -50 9
TL 101 5 103 5 -50 9
TL 101 5 104 5 -50 9
TL 101 5 105 5 -50 9
TL 101 5 106 5 -50 9
TL 101 5 107 5 -50 9
TL 101 5 108 5 -50 9
LD 5 0 0 0 3.8E7 0
EX 0 101 5 0 1 0
GN 2 0 0 0 13 0.005
FR 0 1 0 0 16.0 0
RP 0 91 360 1001 0. 0. 1. 1.
