CM Curtain Antenna with Aperiodic Screen Reflector ([218] Centre-fed at 21.0 MHz - Aperiodic Screen Reflector) -- AHRS-4-4-1.0
CM - - - created by 'The I.T.S. S.A.G. ver 0.80' on Mon Sep 23 09:37:25 2013
CM  - Wires 101-199 = Array Elements
CM  - Wires 201-399 = Horizontal Screen Elements
CM  - Wires 401-499 = Vertical Screen Elements
CM  - Wires 801-899 = 'Legs' for Vertical Screen Elements
CE
GW 101 9 0.0 0.0 14.271667 0.0 7.135833 14.271667 0.004
GW 102 9 0.0 10.70375 14.271667 0.0 17.839583 14.271667 0.004
GW 103 9 0.0 21.4075 14.271667 0.0 28.543333 14.271667 0.004
GW 104 9 0.0 32.11125 14.271667 0.0 39.247083 14.271667 0.004
GW 105 9 0.0 0.0 21.4075 0.0 7.135833 21.4075 0.004
GW 106 9 0.0 10.70375 21.4075 0.0 17.839583 21.4075 0.004
GW 107 9 0.0 21.4075 21.4075 0.0 28.543333 21.4075 0.004
GW 108 9 0.0 32.11125 21.4075 0.0 39.247083 21.4075 0.004
GW 109 9 0.0 0.0 28.543333 0.0 7.135833 28.543333 0.004
GW 110 9 0.0 10.70375 28.543333 0.0 17.839583 28.543333 0.004
GW 111 9 0.0 21.4075 28.543333 0.0 28.543333 28.543333 0.004
GW 112 9 0.0 32.11125 28.543333 0.0 39.247083 28.543333 0.004
GW 113 9 0.0 0.0 35.679167 0.0 7.135833 35.679167 0.004
GW 114 9 0.0 10.70375 35.679167 0.0 17.839583 35.679167 0.004
GW 115 9 0.0 21.4075 35.679167 0.0 28.543333 35.679167 0.004
GW 116 9 0.0 32.11125 35.679167 0.0 39.247083 35.679167 0.004
GW 201 38 -3.57 -7.1358 7.1358 -3.57 46.3892 7.1358 0.004
GW 202 38 -3.57 -7.1358 7.492592 -3.57 46.3892 7.492592 0.004
GW 203 38 -3.57 -7.1358 7.849383 -3.57 46.3892 7.849383 0.004
GW 204 38 -3.57 -7.1358 8.206175 -3.57 46.3892 8.206175 0.004
GW 205 38 -3.57 -7.1358 8.562967 -3.57 46.3892 8.562967 0.004
GW 206 38 -3.57 -7.1358 8.919758 -3.57 46.3892 8.919758 0.004
GW 207 38 -3.57 -7.1358 9.27655 -3.57 46.3892 9.27655 0.004
GW 208 38 -3.57 -7.1358 9.633342 -3.57 46.3892 9.633342 0.004
GW 209 38 -3.57 -7.1358 9.990133 -3.57 46.3892 9.990133 0.004
GW 210 38 -3.57 -7.1358 10.346925 -3.57 46.3892 10.346925 0.004
GW 211 38 -3.57 -7.1358 10.703717 -3.57 46.3892 10.703717 0.004
GW 212 38 -3.57 -7.1358 11.060508 -3.57 46.3892 11.060508 0.004
GW 213 38 -3.57 -7.1358 11.4173 -3.57 46.3892 11.4173 0.004
GW 214 38 -3.57 -7.1358 11.774092 -3.57 46.3892 11.774092 0.004
GW 215 38 -3.57 -7.1358 12.130883 -3.57 46.3892 12.130883 0.004
GW 216 38 -3.57 -7.1358 12.487675 -3.57 46.3892 12.487675 0.004
GW 217 38 -3.57 -7.1358 12.844467 -3.57 46.3892 12.844467 0.004
GW 218 38 -3.57 -7.1358 13.201258 -3.57 46.3892 13.201258 0.004
GW 219 38 -3.57 -7.1358 13.55805 -3.57 46.3892 13.55805 0.004
GW 220 38 -3.57 -7.1358 13.914842 -3.57 46.3892 13.914842 0.004
GW 221 38 -3.57 -7.1358 14.271633 -3.57 46.3892 14.271633 0.004
GW 222 38 -3.57 -7.1358 14.628425 -3.57 46.3892 14.628425 0.004
GW 223 38 -3.57 -7.1358 14.985217 -3.57 46.3892 14.985217 0.004
GW 224 38 -3.57 -7.1358 15.342008 -3.57 46.3892 15.342008 0.004
GW 225 38 -3.57 -7.1358 15.6988 -3.57 46.3892 15.6988 0.004
GW 226 38 -3.57 -7.1358 16.055592 -3.57 46.3892 16.055592 0.004
GW 227 38 -3.57 -7.1358 16.412383 -3.57 46.3892 16.412383 0.004
GW 228 38 -3.57 -7.1358 16.769175 -3.57 46.3892 16.769175 0.004
GW 229 38 -3.57 -7.1358 17.125967 -3.57 46.3892 17.125967 0.004
GW 230 38 -3.57 -7.1358 17.482758 -3.57 46.3892 17.482758 0.004
GW 231 38 -3.57 -7.1358 17.83955 -3.57 46.3892 17.83955 0.004
GW 232 38 -3.57 -7.1358 18.196342 -3.57 46.3892 18.196342 0.004
GW 233 38 -3.57 -7.1358 18.553133 -3.57 46.3892 18.553133 0.004
GW 234 38 -3.57 -7.1358 18.909925 -3.57 46.3892 18.909925 0.004
GW 235 38 -3.57 -7.1358 19.266717 -3.57 46.3892 19.266717 0.004
GW 236 38 -3.57 -7.1358 19.623508 -3.57 46.3892 19.623508 0.004
GW 237 38 -3.57 -7.1358 19.9803 -3.57 46.3892 19.9803 0.004
GW 238 38 -3.57 -7.1358 20.337092 -3.57 46.3892 20.337092 0.004
GW 239 38 -3.57 -7.1358 20.693883 -3.57 46.3892 20.693883 0.004
GW 240 38 -3.57 -7.1358 21.050675 -3.57 46.3892 21.050675 0.004
GW 241 38 -3.57 -7.1358 21.407467 -3.57 46.3892 21.407467 0.004
GW 242 38 -3.57 -7.1358 21.764258 -3.57 46.3892 21.764258 0.004
GW 243 38 -3.57 -7.1358 22.12105 -3.57 46.3892 22.12105 0.004
GW 244 38 -3.57 -7.1358 22.477842 -3.57 46.3892 22.477842 0.004
GW 245 38 -3.57 -7.1358 22.834633 -3.57 46.3892 22.834633 0.004
GW 246 38 -3.57 -7.1358 23.191425 -3.57 46.3892 23.191425 0.004
GW 247 38 -3.57 -7.1358 23.548217 -3.57 46.3892 23.548217 0.004
GW 248 38 -3.57 -7.1358 23.905008 -3.57 46.3892 23.905008 0.004
GW 249 38 -3.57 -7.1358 24.2618 -3.57 46.3892 24.2618 0.004
GW 250 38 -3.57 -7.1358 24.618592 -3.57 46.3892 24.618592 0.004
GW 251 38 -3.57 -7.1358 24.975383 -3.57 46.3892 24.975383 0.004
GW 252 38 -3.57 -7.1358 25.332175 -3.57 46.3892 25.332175 0.004
GW 253 38 -3.57 -7.1358 25.688967 -3.57 46.3892 25.688967 0.004
GW 254 38 -3.57 -7.1358 26.045758 -3.57 46.3892 26.045758 0.004
GW 255 38 -3.57 -7.1358 26.40255 -3.57 46.3892 26.40255 0.004
GW 256 38 -3.57 -7.1358 26.759342 -3.57 46.3892 26.759342 0.004
GW 257 38 -3.57 -7.1358 27.116133 -3.57 46.3892 27.116133 0.004
GW 258 38 -3.57 -7.1358 27.472925 -3.57 46.3892 27.472925 0.004
GW 259 38 -3.57 -7.1358 27.829717 -3.57 46.3892 27.829717 0.004
GW 260 38 -3.57 -7.1358 28.186508 -3.57 46.3892 28.186508 0.004
GW 261 38 -3.57 -7.1358 28.5433 -3.57 46.3892 28.5433 0.004
GW 262 38 -3.57 -7.1358 28.900092 -3.57 46.3892 28.900092 0.004
GW 263 38 -3.57 -7.1358 29.256883 -3.57 46.3892 29.256883 0.004
GW 264 38 -3.57 -7.1358 29.613675 -3.57 46.3892 29.613675 0.004
GW 265 38 -3.57 -7.1358 29.970467 -3.57 46.3892 29.970467 0.004
GW 266 38 -3.57 -7.1358 30.327258 -3.57 46.3892 30.327258 0.004
GW 267 38 -3.57 -7.1358 30.68405 -3.57 46.3892 30.68405 0.004
GW 268 38 -3.57 -7.1358 31.040842 -3.57 46.3892 31.040842 0.004
GW 269 38 -3.57 -7.1358 31.397633 -3.57 46.3892 31.397633 0.004
GW 270 38 -3.57 -7.1358 31.754425 -3.57 46.3892 31.754425 0.004
GW 271 38 -3.57 -7.1358 32.111217 -3.57 46.3892 32.111217 0.004
GW 272 38 -3.57 -7.1358 32.468008 -3.57 46.3892 32.468008 0.004
GW 273 38 -3.57 -7.1358 32.8248 -3.57 46.3892 32.8248 0.004
GW 274 38 -3.57 -7.1358 33.181592 -3.57 46.3892 33.181592 0.004
GW 275 38 -3.57 -7.1358 33.538383 -3.57 46.3892 33.538383 0.004
GW 276 38 -3.57 -7.1358 33.895175 -3.57 46.3892 33.895175 0.004
GW 277 38 -3.57 -7.1358 34.251967 -3.57 46.3892 34.251967 0.004
GW 278 38 -3.57 -7.1358 34.608758 -3.57 46.3892 34.608758 0.004
GW 279 38 -3.57 -7.1358 34.96555 -3.57 46.3892 34.96555 0.004
GW 280 38 -3.57 -7.1358 35.322342 -3.57 46.3892 35.322342 0.004
GW 281 38 -3.57 -7.1358 35.679133 -3.57 46.3892 35.679133 0.004
GW 282 38 -3.57 -7.1358 36.035925 -3.57 46.3892 36.035925 0.004
GW 283 38 -3.57 -7.1358 36.392717 -3.57 46.3892 36.392717 0.004
GW 284 38 -3.57 -7.1358 36.749508 -3.57 46.3892 36.749508 0.004
GW 285 38 -3.57 -7.1358 37.1063 -3.57 46.3892 37.1063 0.004
GW 286 38 -3.57 -7.1358 37.463092 -3.57 46.3892 37.463092 0.004
GW 287 38 -3.57 -7.1358 37.819883 -3.57 46.3892 37.819883 0.004
GW 288 38 -3.57 -7.1358 38.176675 -3.57 46.3892 38.176675 0.004
GW 289 38 -3.57 -7.1358 38.533467 -3.57 46.3892 38.533467 0.004
GW 290 38 -3.57 -7.1358 38.890258 -3.57 46.3892 38.890258 0.004
GW 291 38 -3.57 -7.1358 39.24705 -3.57 46.3892 39.24705 0.004
GW 292 38 -3.57 -7.1358 39.603842 -3.57 46.3892 39.603842 0.004
GW 293 38 -3.57 -7.1358 39.960633 -3.57 46.3892 39.960633 0.004
GW 294 38 -3.57 -7.1358 40.317425 -3.57 46.3892 40.317425 0.004
GW 295 38 -3.57 -7.1358 40.674217 -3.57 46.3892 40.674217 0.004
GW 296 38 -3.57 -7.1358 41.031008 -3.57 46.3892 41.031008 0.004
GW 297 38 -3.57 -7.1358 41.3878 -3.57 46.3892 41.3878 0.004
GW 298 38 -3.57 -7.1358 41.744592 -3.57 46.3892 41.744592 0.004
GW 299 38 -3.57 -7.1358 42.101383 -3.57 46.3892 42.101383 0.004
GW 300 38 -3.57 -7.1358 42.458175 -3.57 46.3892 42.458175 0.004
GW 301 38 -3.57 -7.1358 42.814967 -3.57 46.3892 42.814967 0.004
GW 401 100 -3.57 -7.1358 42.814967 -3.57 -7.1358 7.1358 0.004
GW 801 7 -3.57 -7.1358 7.1358 -3.57 -7.1358 0 0.004
GW 402 100 -3.57 19.6267 42.814967 -3.57 19.6267 7.1358 0.004
GW 802 7 -3.57 19.6267 7.1358 -3.57 19.6267 0 0.004
GW 403 100 -3.57 46.3892 42.814967 -3.57 46.3892 7.1358 0.004
GW 803 7 -3.57 46.3892 7.1358 -3.57 46.3892 0 0.004
GE 1
EK
TL 101 5 102 5 -50 12
TL 101 5 103 5 -50 12
TL 101 5 104 5 -50 12
TL 101 5 105 5 -50 12
TL 101 5 106 5 -50 12
TL 101 5 107 5 -50 12
TL 101 5 108 5 -50 12
TL 101 5 109 5 -50 12
TL 101 5 110 5 -50 12
TL 101 5 111 5 -50 12
TL 101 5 112 5 -50 12
TL 101 5 113 5 -50 12
TL 101 5 114 5 -50 12
TL 101 5 115 5 -50 12
TL 101 5 116 5 -50 12
LD 5 0 0 0 3.8E7 0
EX 0 101 5 0 1 0
GN 2 0 0 0 13 0.005
FR 0 1 0 0 21.0 0
RP 0 91 360 1001 0. 0. 1. 1.
