CM Curtain Antenna with Aperiodic Screen Reflector ([288] Centre-fed at 22.0 MHz - Aperiodic Screen Reflector) -- AHRS-8-4-1.0
CM - - - created by 'The I.T.S. S.A.G. ver 0.80' on Mon Sep 23 09:37:25 2013
CM  - Wires 101-199 = Array Elements
CM  - Wires 201-399 = Horizontal Screen Elements
CM  - Wires 401-499 = Vertical Screen Elements
CM  - Wires 801-899 = 'Legs' for Vertical Screen Elements
CE
GW 101 9 0.0 0.0 13.622955 0.0 6.811477 13.622955 0.004
GW 102 9 0.0 10.217216 13.622955 0.0 17.028693 13.622955 0.004
GW 103 9 0.0 20.434432 13.622955 0.0 27.245909 13.622955 0.004
GW 104 9 0.0 30.651648 13.622955 0.0 37.463125 13.622955 0.004
GW 105 9 0.0 40.868864 13.622955 0.0 47.680341 13.622955 0.004
GW 106 9 0.0 51.08608 13.622955 0.0 57.897557 13.622955 0.004
GW 107 9 0.0 61.303295 13.622955 0.0 68.114773 13.622955 0.004
GW 108 9 0.0 71.520511 13.622955 0.0 78.331989 13.622955 0.004
GW 109 9 0.0 0.0 20.434432 0.0 6.811477 20.434432 0.004
GW 110 9 0.0 10.217216 20.434432 0.0 17.028693 20.434432 0.004
GW 111 9 0.0 20.434432 20.434432 0.0 27.245909 20.434432 0.004
GW 112 9 0.0 30.651648 20.434432 0.0 37.463125 20.434432 0.004
GW 113 9 0.0 40.868864 20.434432 0.0 47.680341 20.434432 0.004
GW 114 9 0.0 51.08608 20.434432 0.0 57.897557 20.434432 0.004
GW 115 9 0.0 61.303295 20.434432 0.0 68.114773 20.434432 0.004
GW 116 9 0.0 71.520511 20.434432 0.0 78.331989 20.434432 0.004
GW 117 9 0.0 0.0 27.245909 0.0 6.811477 27.245909 0.004
GW 118 9 0.0 10.217216 27.245909 0.0 17.028693 27.245909 0.004
GW 119 9 0.0 20.434432 27.245909 0.0 27.245909 27.245909 0.004
GW 120 9 0.0 30.651648 27.245909 0.0 37.463125 27.245909 0.004
GW 121 9 0.0 40.868864 27.245909 0.0 47.680341 27.245909 0.004
GW 122 9 0.0 51.08608 27.245909 0.0 57.897557 27.245909 0.004
GW 123 9 0.0 61.303295 27.245909 0.0 68.114773 27.245909 0.004
GW 124 9 0.0 71.520511 27.245909 0.0 78.331989 27.245909 0.004
GW 125 9 0.0 0.0 34.057386 0.0 6.811477 34.057386 0.004
GW 126 9 0.0 10.217216 34.057386 0.0 17.028693 34.057386 0.004
GW 127 9 0.0 20.434432 34.057386 0.0 27.245909 34.057386 0.004
GW 128 9 0.0 30.651648 34.057386 0.0 37.463125 34.057386 0.004
GW 129 9 0.0 40.868864 34.057386 0.0 47.680341 34.057386 0.004
GW 130 9 0.0 51.08608 34.057386 0.0 57.897557 34.057386 0.004
GW 131 9 0.0 61.303295 34.057386 0.0 68.114773 34.057386 0.004
GW 132 9 0.0 71.520511 34.057386 0.0 78.331989 34.057386 0.004
GW 201 68 -3.41 -6.8115 6.8115 -3.41 85.1733 6.8115 0.004
GW 202 68 -3.41 -6.8115 7.152074 -3.41 85.1733 7.152074 0.004
GW 203 68 -3.41 -6.8115 7.492648 -3.41 85.1733 7.492648 0.004
GW 204 68 -3.41 -6.8115 7.833222 -3.41 85.1733 7.833222 0.004
GW 205 68 -3.41 -6.8115 8.173795 -3.41 85.1733 8.173795 0.004
GW 206 68 -3.41 -6.8115 8.514369 -3.41 85.1733 8.514369 0.004
GW 207 68 -3.41 -6.8115 8.854943 -3.41 85.1733 8.854943 0.004
GW 208 68 -3.41 -6.8115 9.195517 -3.41 85.1733 9.195517 0.004
GW 209 68 -3.41 -6.8115 9.536091 -3.41 85.1733 9.536091 0.004
GW 210 68 -3.41 -6.8115 9.876665 -3.41 85.1733 9.876665 0.004
GW 211 68 -3.41 -6.8115 10.217239 -3.41 85.1733 10.217239 0.004
GW 212 68 -3.41 -6.8115 10.557813 -3.41 85.1733 10.557813 0.004
GW 213 68 -3.41 -6.8115 10.898386 -3.41 85.1733 10.898386 0.004
GW 214 68 -3.41 -6.8115 11.23896 -3.41 85.1733 11.23896 0.004
GW 215 68 -3.41 -6.8115 11.579534 -3.41 85.1733 11.579534 0.004
GW 216 68 -3.41 -6.8115 11.920108 -3.41 85.1733 11.920108 0.004
GW 217 68 -3.41 -6.8115 12.260682 -3.41 85.1733 12.260682 0.004
GW 218 68 -3.41 -6.8115 12.601256 -3.41 85.1733 12.601256 0.004
GW 219 68 -3.41 -6.8115 12.94183 -3.41 85.1733 12.94183 0.004
GW 220 68 -3.41 -6.8115 13.282403 -3.41 85.1733 13.282403 0.004
GW 221 68 -3.41 -6.8115 13.622977 -3.41 85.1733 13.622977 0.004
GW 222 68 -3.41 -6.8115 13.963551 -3.41 85.1733 13.963551 0.004
GW 223 68 -3.41 -6.8115 14.304125 -3.41 85.1733 14.304125 0.004
GW 224 68 -3.41 -6.8115 14.644699 -3.41 85.1733 14.644699 0.004
GW 225 68 -3.41 -6.8115 14.985273 -3.41 85.1733 14.985273 0.004
GW 226 68 -3.41 -6.8115 15.325847 -3.41 85.1733 15.325847 0.004
GW 227 68 -3.41 -6.8115 15.66642 -3.41 85.1733 15.66642 0.004
GW 228 68 -3.41 -6.8115 16.006994 -3.41 85.1733 16.006994 0.004
GW 229 68 -3.41 -6.8115 16.347568 -3.41 85.1733 16.347568 0.004
GW 230 68 -3.41 -6.8115 16.688142 -3.41 85.1733 16.688142 0.004
GW 231 68 -3.41 -6.8115 17.028716 -3.41 85.1733 17.028716 0.004
GW 232 68 -3.41 -6.8115 17.36929 -3.41 85.1733 17.36929 0.004
GW 233 68 -3.41 -6.8115 17.709864 -3.41 85.1733 17.709864 0.004
GW 234 68 -3.41 -6.8115 18.050438 -3.41 85.1733 18.050438 0.004
GW 235 68 -3.41 -6.8115 18.391011 -3.41 85.1733 18.391011 0.004
GW 236 68 -3.41 -6.8115 18.731585 -3.41 85.1733 18.731585 0.004
GW 237 68 -3.41 -6.8115 19.072159 -3.41 85.1733 19.072159 0.004
GW 238 68 -3.41 -6.8115 19.412733 -3.41 85.1733 19.412733 0.004
GW 239 68 -3.41 -6.8115 19.753307 -3.41 85.1733 19.753307 0.004
GW 240 68 -3.41 -6.8115 20.093881 -3.41 85.1733 20.093881 0.004
GW 241 68 -3.41 -6.8115 20.434455 -3.41 85.1733 20.434455 0.004
GW 242 68 -3.41 -6.8115 20.775028 -3.41 85.1733 20.775028 0.004
GW 243 68 -3.41 -6.8115 21.115602 -3.41 85.1733 21.115602 0.004
GW 244 68 -3.41 -6.8115 21.456176 -3.41 85.1733 21.456176 0.004
GW 245 68 -3.41 -6.8115 21.79675 -3.41 85.1733 21.79675 0.004
GW 246 68 -3.41 -6.8115 22.137324 -3.41 85.1733 22.137324 0.004
GW 247 68 -3.41 -6.8115 22.477898 -3.41 85.1733 22.477898 0.004
GW 248 68 -3.41 -6.8115 22.818472 -3.41 85.1733 22.818472 0.004
GW 249 68 -3.41 -6.8115 23.159045 -3.41 85.1733 23.159045 0.004
GW 250 68 -3.41 -6.8115 23.499619 -3.41 85.1733 23.499619 0.004
GW 251 68 -3.41 -6.8115 23.840193 -3.41 85.1733 23.840193 0.004
GW 252 68 -3.41 -6.8115 24.180767 -3.41 85.1733 24.180767 0.004
GW 253 68 -3.41 -6.8115 24.521341 -3.41 85.1733 24.521341 0.004
GW 254 68 -3.41 -6.8115 24.861915 -3.41 85.1733 24.861915 0.004
GW 255 68 -3.41 -6.8115 25.202489 -3.41 85.1733 25.202489 0.004
GW 256 68 -3.41 -6.8115 25.543063 -3.41 85.1733 25.543063 0.004
GW 257 68 -3.41 -6.8115 25.883636 -3.41 85.1733 25.883636 0.004
GW 258 68 -3.41 -6.8115 26.22421 -3.41 85.1733 26.22421 0.004
GW 259 68 -3.41 -6.8115 26.564784 -3.41 85.1733 26.564784 0.004
GW 260 68 -3.41 -6.8115 26.905358 -3.41 85.1733 26.905358 0.004
GW 261 68 -3.41 -6.8115 27.245932 -3.41 85.1733 27.245932 0.004
GW 262 68 -3.41 -6.8115 27.586506 -3.41 85.1733 27.586506 0.004
GW 263 68 -3.41 -6.8115 27.92708 -3.41 85.1733 27.92708 0.004
GW 264 68 -3.41 -6.8115 28.267653 -3.41 85.1733 28.267653 0.004
GW 265 68 -3.41 -6.8115 28.608227 -3.41 85.1733 28.608227 0.004
GW 266 68 -3.41 -6.8115 28.948801 -3.41 85.1733 28.948801 0.004
GW 267 68 -3.41 -6.8115 29.289375 -3.41 85.1733 29.289375 0.004
GW 268 68 -3.41 -6.8115 29.629949 -3.41 85.1733 29.629949 0.004
GW 269 68 -3.41 -6.8115 29.970523 -3.41 85.1733 29.970523 0.004
GW 270 68 -3.41 -6.8115 30.311097 -3.41 85.1733 30.311097 0.004
GW 271 68 -3.41 -6.8115 30.65167 -3.41 85.1733 30.65167 0.004
GW 272 68 -3.41 -6.8115 30.992244 -3.41 85.1733 30.992244 0.004
GW 273 68 -3.41 -6.8115 31.332818 -3.41 85.1733 31.332818 0.004
GW 274 68 -3.41 -6.8115 31.673392 -3.41 85.1733 31.673392 0.004
GW 275 68 -3.41 -6.8115 32.013966 -3.41 85.1733 32.013966 0.004
GW 276 68 -3.41 -6.8115 32.35454 -3.41 85.1733 32.35454 0.004
GW 277 68 -3.41 -6.8115 32.695114 -3.41 85.1733 32.695114 0.004
GW 278 68 -3.41 -6.8115 33.035688 -3.41 85.1733 33.035688 0.004
GW 279 68 -3.41 -6.8115 33.376261 -3.41 85.1733 33.376261 0.004
GW 280 68 -3.41 -6.8115 33.716835 -3.41 85.1733 33.716835 0.004
GW 281 68 -3.41 -6.8115 34.057409 -3.41 85.1733 34.057409 0.004
GW 282 68 -3.41 -6.8115 34.397983 -3.41 85.1733 34.397983 0.004
GW 283 68 -3.41 -6.8115 34.738557 -3.41 85.1733 34.738557 0.004
GW 284 68 -3.41 -6.8115 35.079131 -3.41 85.1733 35.079131 0.004
GW 285 68 -3.41 -6.8115 35.419705 -3.41 85.1733 35.419705 0.004
GW 286 68 -3.41 -6.8115 35.760278 -3.41 85.1733 35.760278 0.004
GW 287 68 -3.41 -6.8115 36.100852 -3.41 85.1733 36.100852 0.004
GW 288 68 -3.41 -6.8115 36.441426 -3.41 85.1733 36.441426 0.004
GW 289 68 -3.41 -6.8115 36.782 -3.41 85.1733 36.782 0.004
GW 290 68 -3.41 -6.8115 37.122574 -3.41 85.1733 37.122574 0.004
GW 291 68 -3.41 -6.8115 37.463148 -3.41 85.1733 37.463148 0.004
GW 292 68 -3.41 -6.8115 37.803722 -3.41 85.1733 37.803722 0.004
GW 293 68 -3.41 -6.8115 38.144295 -3.41 85.1733 38.144295 0.004
GW 294 68 -3.41 -6.8115 38.484869 -3.41 85.1733 38.484869 0.004
GW 295 68 -3.41 -6.8115 38.825443 -3.41 85.1733 38.825443 0.004
GW 296 68 -3.41 -6.8115 39.166017 -3.41 85.1733 39.166017 0.004
GW 297 68 -3.41 -6.8115 39.506591 -3.41 85.1733 39.506591 0.004
GW 298 68 -3.41 -6.8115 39.847165 -3.41 85.1733 39.847165 0.004
GW 299 68 -3.41 -6.8115 40.187739 -3.41 85.1733 40.187739 0.004
GW 300 68 -3.41 -6.8115 40.528313 -3.41 85.1733 40.528313 0.004
GW 401 99 -3.41 -6.8115 40.528313 -3.41 -6.8115 6.8115 0.004
GW 801 8 -3.41 -6.8115 6.8115 -3.41 -6.8115 0 0.004
GW 402 99 -3.41 39.1809 40.528313 -3.41 39.1809 6.8115 0.004
GW 802 8 -3.41 39.1809 6.8115 -3.41 39.1809 0 0.004
GW 403 99 -3.41 85.1733 40.528313 -3.41 85.1733 6.8115 0.004
GW 803 8 -3.41 85.1733 6.8115 -3.41 85.1733 0 0.004
GE 1
EK
TL 101 5 102 5 -50 18
TL 101 5 103 5 -50 18
TL 101 5 104 5 -50 18
TL 101 5 105 5 -50 18
TL 101 5 106 5 -50 18
TL 101 5 107 5 -50 18
TL 101 5 108 5 -50 18
TL 101 5 109 5 -50 18
TL 101 5 110 5 -50 18
TL 101 5 111 5 -50 18
TL 101 5 112 5 -50 18
TL 101 5 113 5 -50 18
TL 101 5 114 5 -50 18
TL 101 5 115 5 -50 18
TL 101 5 116 5 -50 18
TL 101 5 117 5 -50 18
TL 101 5 118 5 -50 18
TL 101 5 119 5 -50 18
TL 101 5 120 5 -50 18
TL 101 5 121 5 -50 18
TL 101 5 122 5 -50 18
TL 101 5 123 5 -50 18
TL 101 5 124 5 -50 18
TL 101 5 125 5 -50 18
TL 101 5 126 5 -50 18
TL 101 5 127 5 -50 18
TL 101 5 128 5 -50 18
TL 101 5 129 5 -50 18
TL 101 5 130 5 -50 18
TL 101 5 131 5 -50 18
TL 101 5 132 5 -50 18
LD 5 0 0 0 3.8E7 0
EX 0 101 5 0 1 0
GN 2 0 0 0 13 0.005
FR 0 1 0 0 22.0 0
RP 0 91 360 1001 0. 0. 1. 1.
