CM Curtain Antenna with Aperiodic Screen Reflector ([288] Centre-fed at 11.0 MHz - Aperiodic Screen Reflector) -- AHRS-8-4-1.0
CM - - - created by 'The I.T.S. S.A.G. ver 0.80' on Mon Sep 23 09:37:25 2013
CM  - Wires 101-199 = Array Elements
CM  - Wires 201-399 = Horizontal Screen Elements
CM  - Wires 401-499 = Vertical Screen Elements
CM  - Wires 801-899 = 'Legs' for Vertical Screen Elements
CE
GW 101 9 0.0 0.0 27.245909 0.0 13.622955 27.245909 0.004
GW 102 9 0.0 20.434432 27.245909 0.0 34.057386 27.245909 0.004
GW 103 9 0.0 40.868864 27.245909 0.0 54.491818 27.245909 0.004
GW 104 9 0.0 61.303295 27.245909 0.0 74.92625 27.245909 0.004
GW 105 9 0.0 81.737727 27.245909 0.0 95.360682 27.245909 0.004
GW 106 9 0.0 102.172159 27.245909 0.0 115.795114 27.245909 0.004
GW 107 9 0.0 122.606591 27.245909 0.0 136.229545 27.245909 0.004
GW 108 9 0.0 143.041023 27.245909 0.0 156.663977 27.245909 0.004
GW 109 9 0.0 0.0 40.868864 0.0 13.622955 40.868864 0.004
GW 110 9 0.0 20.434432 40.868864 0.0 34.057386 40.868864 0.004
GW 111 9 0.0 40.868864 40.868864 0.0 54.491818 40.868864 0.004
GW 112 9 0.0 61.303295 40.868864 0.0 74.92625 40.868864 0.004
GW 113 9 0.0 81.737727 40.868864 0.0 95.360682 40.868864 0.004
GW 114 9 0.0 102.172159 40.868864 0.0 115.795114 40.868864 0.004
GW 115 9 0.0 122.606591 40.868864 0.0 136.229545 40.868864 0.004
GW 116 9 0.0 143.041023 40.868864 0.0 156.663977 40.868864 0.004
GW 117 9 0.0 0.0 54.491818 0.0 13.622955 54.491818 0.004
GW 118 9 0.0 20.434432 54.491818 0.0 34.057386 54.491818 0.004
GW 119 9 0.0 40.868864 54.491818 0.0 54.491818 54.491818 0.004
GW 120 9 0.0 61.303295 54.491818 0.0 74.92625 54.491818 0.004
GW 121 9 0.0 81.737727 54.491818 0.0 95.360682 54.491818 0.004
GW 122 9 0.0 102.172159 54.491818 0.0 115.795114 54.491818 0.004
GW 123 9 0.0 122.606591 54.491818 0.0 136.229545 54.491818 0.004
GW 124 9 0.0 143.041023 54.491818 0.0 156.663977 54.491818 0.004
GW 125 9 0.0 0.0 68.114773 0.0 13.622955 68.114773 0.004
GW 126 9 0.0 20.434432 68.114773 0.0 34.057386 68.114773 0.004
GW 127 9 0.0 40.868864 68.114773 0.0 54.491818 68.114773 0.004
GW 128 9 0.0 61.303295 68.114773 0.0 74.92625 68.114773 0.004
GW 129 9 0.0 81.737727 68.114773 0.0 95.360682 68.114773 0.004
GW 130 9 0.0 102.172159 68.114773 0.0 115.795114 68.114773 0.004
GW 131 9 0.0 122.606591 68.114773 0.0 136.229545 68.114773 0.004
GW 132 9 0.0 143.041023 68.114773 0.0 156.663977 68.114773 0.004
GW 201 68 -6.81 -13.623 13.623 -6.81 170.2765 13.623 0.004
GW 202 68 -6.81 -13.623 14.304148 -6.81 170.2765 14.304148 0.004
GW 203 68 -6.81 -13.623 14.985295 -6.81 170.2765 14.985295 0.004
GW 204 68 -6.81 -13.623 15.666443 -6.81 170.2765 15.666443 0.004
GW 205 68 -6.81 -13.623 16.347591 -6.81 170.2765 16.347591 0.004
GW 206 68 -6.81 -13.623 17.028739 -6.81 170.2765 17.028739 0.004
GW 207 68 -6.81 -13.623 17.709886 -6.81 170.2765 17.709886 0.004
GW 208 68 -6.81 -13.623 18.391034 -6.81 170.2765 18.391034 0.004
GW 209 68 -6.81 -13.623 19.072182 -6.81 170.2765 19.072182 0.004
GW 210 68 -6.81 -13.623 19.75333 -6.81 170.2765 19.75333 0.004
GW 211 68 -6.81 -13.623 20.434477 -6.81 170.2765 20.434477 0.004
GW 212 68 -6.81 -13.623 21.115625 -6.81 170.2765 21.115625 0.004
GW 213 68 -6.81 -13.623 21.796773 -6.81 170.2765 21.796773 0.004
GW 214 68 -6.81 -13.623 22.47792 -6.81 170.2765 22.47792 0.004
GW 215 68 -6.81 -13.623 23.159068 -6.81 170.2765 23.159068 0.004
GW 216 68 -6.81 -13.623 23.840216 -6.81 170.2765 23.840216 0.004
GW 217 68 -6.81 -13.623 24.521364 -6.81 170.2765 24.521364 0.004
GW 218 68 -6.81 -13.623 25.202511 -6.81 170.2765 25.202511 0.004
GW 219 68 -6.81 -13.623 25.883659 -6.81 170.2765 25.883659 0.004
GW 220 68 -6.81 -13.623 26.564807 -6.81 170.2765 26.564807 0.004
GW 221 68 -6.81 -13.623 27.245955 -6.81 170.2765 27.245955 0.004
GW 222 68 -6.81 -13.623 27.927102 -6.81 170.2765 27.927102 0.004
GW 223 68 -6.81 -13.623 28.60825 -6.81 170.2765 28.60825 0.004
GW 224 68 -6.81 -13.623 29.289398 -6.81 170.2765 29.289398 0.004
GW 225 68 -6.81 -13.623 29.970545 -6.81 170.2765 29.970545 0.004
GW 226 68 -6.81 -13.623 30.651693 -6.81 170.2765 30.651693 0.004
GW 227 68 -6.81 -13.623 31.332841 -6.81 170.2765 31.332841 0.004
GW 228 68 -6.81 -13.623 32.013989 -6.81 170.2765 32.013989 0.004
GW 229 68 -6.81 -13.623 32.695136 -6.81 170.2765 32.695136 0.004
GW 230 68 -6.81 -13.623 33.376284 -6.81 170.2765 33.376284 0.004
GW 231 68 -6.81 -13.623 34.057432 -6.81 170.2765 34.057432 0.004
GW 232 68 -6.81 -13.623 34.73858 -6.81 170.2765 34.73858 0.004
GW 233 68 -6.81 -13.623 35.419727 -6.81 170.2765 35.419727 0.004
GW 234 68 -6.81 -13.623 36.100875 -6.81 170.2765 36.100875 0.004
GW 235 68 -6.81 -13.623 36.782023 -6.81 170.2765 36.782023 0.004
GW 236 68 -6.81 -13.623 37.46317 -6.81 170.2765 37.46317 0.004
GW 237 68 -6.81 -13.623 38.144318 -6.81 170.2765 38.144318 0.004
GW 238 68 -6.81 -13.623 38.825466 -6.81 170.2765 38.825466 0.004
GW 239 68 -6.81 -13.623 39.506614 -6.81 170.2765 39.506614 0.004
GW 240 68 -6.81 -13.623 40.187761 -6.81 170.2765 40.187761 0.004
GW 241 68 -6.81 -13.623 40.868909 -6.81 170.2765 40.868909 0.004
GW 242 68 -6.81 -13.623 41.550057 -6.81 170.2765 41.550057 0.004
GW 243 68 -6.81 -13.623 42.231205 -6.81 170.2765 42.231205 0.004
GW 244 68 -6.81 -13.623 42.912352 -6.81 170.2765 42.912352 0.004
GW 245 68 -6.81 -13.623 43.5935 -6.81 170.2765 43.5935 0.004
GW 246 68 -6.81 -13.623 44.274648 -6.81 170.2765 44.274648 0.004
GW 247 68 -6.81 -13.623 44.955795 -6.81 170.2765 44.955795 0.004
GW 248 68 -6.81 -13.623 45.636943 -6.81 170.2765 45.636943 0.004
GW 249 68 -6.81 -13.623 46.318091 -6.81 170.2765 46.318091 0.004
GW 250 68 -6.81 -13.623 46.999239 -6.81 170.2765 46.999239 0.004
GW 251 68 -6.81 -13.623 47.680386 -6.81 170.2765 47.680386 0.004
GW 252 68 -6.81 -13.623 48.361534 -6.81 170.2765 48.361534 0.004
GW 253 68 -6.81 -13.623 49.042682 -6.81 170.2765 49.042682 0.004
GW 254 68 -6.81 -13.623 49.72383 -6.81 170.2765 49.72383 0.004
GW 255 68 -6.81 -13.623 50.404977 -6.81 170.2765 50.404977 0.004
GW 256 68 -6.81 -13.623 51.086125 -6.81 170.2765 51.086125 0.004
GW 257 68 -6.81 -13.623 51.767273 -6.81 170.2765 51.767273 0.004
GW 258 68 -6.81 -13.623 52.44842 -6.81 170.2765 52.44842 0.004
GW 259 68 -6.81 -13.623 53.129568 -6.81 170.2765 53.129568 0.004
GW 260 68 -6.81 -13.623 53.810716 -6.81 170.2765 53.810716 0.004
GW 261 68 -6.81 -13.623 54.491864 -6.81 170.2765 54.491864 0.004
GW 262 68 -6.81 -13.623 55.173011 -6.81 170.2765 55.173011 0.004
GW 263 68 -6.81 -13.623 55.854159 -6.81 170.2765 55.854159 0.004
GW 264 68 -6.81 -13.623 56.535307 -6.81 170.2765 56.535307 0.004
GW 265 68 -6.81 -13.623 57.216455 -6.81 170.2765 57.216455 0.004
GW 266 68 -6.81 -13.623 57.897602 -6.81 170.2765 57.897602 0.004
GW 267 68 -6.81 -13.623 58.57875 -6.81 170.2765 58.57875 0.004
GW 268 68 -6.81 -13.623 59.259898 -6.81 170.2765 59.259898 0.004
GW 269 68 -6.81 -13.623 59.941045 -6.81 170.2765 59.941045 0.004
GW 270 68 -6.81 -13.623 60.622193 -6.81 170.2765 60.622193 0.004
GW 271 68 -6.81 -13.623 61.303341 -6.81 170.2765 61.303341 0.004
GW 272 68 -6.81 -13.623 61.984489 -6.81 170.2765 61.984489 0.004
GW 273 68 -6.81 -13.623 62.665636 -6.81 170.2765 62.665636 0.004
GW 274 68 -6.81 -13.623 63.346784 -6.81 170.2765 63.346784 0.004
GW 275 68 -6.81 -13.623 64.027932 -6.81 170.2765 64.027932 0.004
GW 276 68 -6.81 -13.623 64.70908 -6.81 170.2765 64.70908 0.004
GW 277 68 -6.81 -13.623 65.390227 -6.81 170.2765 65.390227 0.004
GW 278 68 -6.81 -13.623 66.071375 -6.81 170.2765 66.071375 0.004
GW 279 68 -6.81 -13.623 66.752523 -6.81 170.2765 66.752523 0.004
GW 280 68 -6.81 -13.623 67.43367 -6.81 170.2765 67.43367 0.004
GW 281 68 -6.81 -13.623 68.114818 -6.81 170.2765 68.114818 0.004
GW 282 68 -6.81 -13.623 68.795966 -6.81 170.2765 68.795966 0.004
GW 283 68 -6.81 -13.623 69.477114 -6.81 170.2765 69.477114 0.004
GW 284 68 -6.81 -13.623 70.158261 -6.81 170.2765 70.158261 0.004
GW 285 68 -6.81 -13.623 70.839409 -6.81 170.2765 70.839409 0.004
GW 286 68 -6.81 -13.623 71.520557 -6.81 170.2765 71.520557 0.004
GW 287 68 -6.81 -13.623 72.201705 -6.81 170.2765 72.201705 0.004
GW 288 68 -6.81 -13.623 72.882852 -6.81 170.2765 72.882852 0.004
GW 289 68 -6.81 -13.623 73.564 -6.81 170.2765 73.564 0.004
GW 290 68 -6.81 -13.623 74.245148 -6.81 170.2765 74.245148 0.004
GW 291 68 -6.81 -13.623 74.926295 -6.81 170.2765 74.926295 0.004
GW 292 68 -6.81 -13.623 75.607443 -6.81 170.2765 75.607443 0.004
GW 293 68 -6.81 -13.623 76.288591 -6.81 170.2765 76.288591 0.004
GW 294 68 -6.81 -13.623 76.969739 -6.81 170.2765 76.969739 0.004
GW 295 68 -6.81 -13.623 77.650886 -6.81 170.2765 77.650886 0.004
GW 296 68 -6.81 -13.623 78.332034 -6.81 170.2765 78.332034 0.004
GW 297 68 -6.81 -13.623 79.013182 -6.81 170.2765 79.013182 0.004
GW 298 68 -6.81 -13.623 79.69433 -6.81 170.2765 79.69433 0.004
GW 299 68 -6.81 -13.623 80.375477 -6.81 170.2765 80.375477 0.004
GW 300 68 -6.81 -13.623 81.056625 -6.81 170.2765 81.056625 0.004
GW 401 99 -6.81 -13.623 81.056625 -6.81 -13.623 13.623 0.004
GW 801 8 -6.81 -13.623 13.623 -6.81 -13.623 0 0.004
GW 402 99 -6.81 78.32675 81.056625 -6.81 78.32675 13.623 0.004
GW 802 8 -6.81 78.32675 13.623 -6.81 78.32675 0 0.004
GW 403 99 -6.81 170.2765 81.056625 -6.81 170.2765 13.623 0.004
GW 803 8 -6.81 170.2765 13.623 -6.81 170.2765 0 0.004
GE 1
EK
TL 101 5 102 5 -50 18
TL 101 5 103 5 -50 18
TL 101 5 104 5 -50 18
TL 101 5 105 5 -50 18
TL 101 5 106 5 -50 18
TL 101 5 107 5 -50 18
TL 101 5 108 5 -50 18
TL 101 5 109 5 -50 18
TL 101 5 110 5 -50 18
TL 101 5 111 5 -50 18
TL 101 5 112 5 -50 18
TL 101 5 113 5 -50 18
TL 101 5 114 5 -50 18
TL 101 5 115 5 -50 18
TL 101 5 116 5 -50 18
TL 101 5 117 5 -50 18
TL 101 5 118 5 -50 18
TL 101 5 119 5 -50 18
TL 101 5 120 5 -50 18
TL 101 5 121 5 -50 18
TL 101 5 122 5 -50 18
TL 101 5 123 5 -50 18
TL 101 5 124 5 -50 18
TL 101 5 125 5 -50 18
TL 101 5 126 5 -50 18
TL 101 5 127 5 -50 18
TL 101 5 128 5 -50 18
TL 101 5 129 5 -50 18
TL 101 5 130 5 -50 18
TL 101 5 131 5 -50 18
TL 101 5 132 5 -50 18
LD 5 0 0 0 3.8E7 0
EX 0 101 5 0 1 0
GN 2 0 0 0 13 0.005
FR 0 1 0 0 11.0 0
RP 0 91 360 1001 0. 0. 1. 1.
