CM Curtain Antenna with Aperiodic Screen Reflector ([208] Centre-fed at 20.0 MHz - Aperiodic Screen Reflector) -- AHRS-4-2-1.0
CM - - - created by 'The I.T.S. S.A.G. ver 0.80' on Mon Sep 23 09:37:25 2013
CM  - Wires 101-199 = Array Elements
CM  - Wires 201-399 = Horizontal Screen Elements
CM  - Wires 401-499 = Vertical Screen Elements
CM  - Wires 801-899 = 'Legs' for Vertical Screen Elements
CE
GW 101 9 0.0 0.0 14.98525 0.0 7.492625 14.98525 0.004
GW 102 9 0.0 11.238937 14.98525 0.0 18.731562 14.98525 0.004
GW 103 9 0.0 22.477875 14.98525 0.0 29.9705 14.98525 0.004
GW 104 9 0.0 33.716812 14.98525 0.0 41.209437 14.98525 0.004
GW 105 9 0.0 0.0 22.477875 0.0 7.492625 22.477875 0.004
GW 106 9 0.0 11.238937 22.477875 0.0 18.731562 22.477875 0.004
GW 107 9 0.0 22.477875 22.477875 0.0 29.9705 22.477875 0.004
GW 108 9 0.0 33.716812 22.477875 0.0 41.209437 22.477875 0.004
GW 201 38 -3.75 -7.4926 7.4926 -3.75 48.7131 7.4926 0.004
GW 202 38 -3.75 -7.4926 7.867231 -3.75 48.7131 7.867231 0.004
GW 203 38 -3.75 -7.4926 8.241862 -3.75 48.7131 8.241862 0.004
GW 204 38 -3.75 -7.4926 8.616494 -3.75 48.7131 8.616494 0.004
GW 205 38 -3.75 -7.4926 8.991125 -3.75 48.7131 8.991125 0.004
GW 206 38 -3.75 -7.4926 9.365756 -3.75 48.7131 9.365756 0.004
GW 207 38 -3.75 -7.4926 9.740388 -3.75 48.7131 9.740388 0.004
GW 208 38 -3.75 -7.4926 10.115019 -3.75 48.7131 10.115019 0.004
GW 209 38 -3.75 -7.4926 10.48965 -3.75 48.7131 10.48965 0.004
GW 210 38 -3.75 -7.4926 10.864281 -3.75 48.7131 10.864281 0.004
GW 211 38 -3.75 -7.4926 11.238912 -3.75 48.7131 11.238912 0.004
GW 212 38 -3.75 -7.4926 11.613544 -3.75 48.7131 11.613544 0.004
GW 213 38 -3.75 -7.4926 11.988175 -3.75 48.7131 11.988175 0.004
GW 214 38 -3.75 -7.4926 12.362806 -3.75 48.7131 12.362806 0.004
GW 215 38 -3.75 -7.4926 12.737437 -3.75 48.7131 12.737437 0.004
GW 216 38 -3.75 -7.4926 13.112069 -3.75 48.7131 13.112069 0.004
GW 217 38 -3.75 -7.4926 13.4867 -3.75 48.7131 13.4867 0.004
GW 218 38 -3.75 -7.4926 13.861331 -3.75 48.7131 13.861331 0.004
GW 219 38 -3.75 -7.4926 14.235962 -3.75 48.7131 14.235962 0.004
GW 220 38 -3.75 -7.4926 14.610594 -3.75 48.7131 14.610594 0.004
GW 221 38 -3.75 -7.4926 14.985225 -3.75 48.7131 14.985225 0.004
GW 222 38 -3.75 -7.4926 15.359856 -3.75 48.7131 15.359856 0.004
GW 223 38 -3.75 -7.4926 15.734488 -3.75 48.7131 15.734488 0.004
GW 224 38 -3.75 -7.4926 16.109119 -3.75 48.7131 16.109119 0.004
GW 225 38 -3.75 -7.4926 16.48375 -3.75 48.7131 16.48375 0.004
GW 226 38 -3.75 -7.4926 16.858381 -3.75 48.7131 16.858381 0.004
GW 227 38 -3.75 -7.4926 17.233013 -3.75 48.7131 17.233013 0.004
GW 228 38 -3.75 -7.4926 17.607644 -3.75 48.7131 17.607644 0.004
GW 229 38 -3.75 -7.4926 17.982275 -3.75 48.7131 17.982275 0.004
GW 230 38 -3.75 -7.4926 18.356906 -3.75 48.7131 18.356906 0.004
GW 231 38 -3.75 -7.4926 18.731537 -3.75 48.7131 18.731537 0.004
GW 232 38 -3.75 -7.4926 19.106169 -3.75 48.7131 19.106169 0.004
GW 233 38 -3.75 -7.4926 19.4808 -3.75 48.7131 19.4808 0.004
GW 234 38 -3.75 -7.4926 19.855431 -3.75 48.7131 19.855431 0.004
GW 235 38 -3.75 -7.4926 20.230062 -3.75 48.7131 20.230062 0.004
GW 236 38 -3.75 -7.4926 20.604694 -3.75 48.7131 20.604694 0.004
GW 237 38 -3.75 -7.4926 20.979325 -3.75 48.7131 20.979325 0.004
GW 238 38 -3.75 -7.4926 21.353956 -3.75 48.7131 21.353956 0.004
GW 239 38 -3.75 -7.4926 21.728587 -3.75 48.7131 21.728587 0.004
GW 240 38 -3.75 -7.4926 22.103219 -3.75 48.7131 22.103219 0.004
GW 241 38 -3.75 -7.4926 22.47785 -3.75 48.7131 22.47785 0.004
GW 242 38 -3.75 -7.4926 22.852481 -3.75 48.7131 22.852481 0.004
GW 243 38 -3.75 -7.4926 23.227113 -3.75 48.7131 23.227113 0.004
GW 244 38 -3.75 -7.4926 23.601744 -3.75 48.7131 23.601744 0.004
GW 245 38 -3.75 -7.4926 23.976375 -3.75 48.7131 23.976375 0.004
GW 246 38 -3.75 -7.4926 24.351006 -3.75 48.7131 24.351006 0.004
GW 247 38 -3.75 -7.4926 24.725637 -3.75 48.7131 24.725637 0.004
GW 248 38 -3.75 -7.4926 25.100269 -3.75 48.7131 25.100269 0.004
GW 249 38 -3.75 -7.4926 25.4749 -3.75 48.7131 25.4749 0.004
GW 250 38 -3.75 -7.4926 25.849531 -3.75 48.7131 25.849531 0.004
GW 251 38 -3.75 -7.4926 26.224162 -3.75 48.7131 26.224162 0.004
GW 252 38 -3.75 -7.4926 26.598794 -3.75 48.7131 26.598794 0.004
GW 253 38 -3.75 -7.4926 26.973425 -3.75 48.7131 26.973425 0.004
GW 254 38 -3.75 -7.4926 27.348056 -3.75 48.7131 27.348056 0.004
GW 255 38 -3.75 -7.4926 27.722687 -3.75 48.7131 27.722687 0.004
GW 256 38 -3.75 -7.4926 28.097319 -3.75 48.7131 28.097319 0.004
GW 257 38 -3.75 -7.4926 28.47195 -3.75 48.7131 28.47195 0.004
GW 258 38 -3.75 -7.4926 28.846581 -3.75 48.7131 28.846581 0.004
GW 259 38 -3.75 -7.4926 29.221212 -3.75 48.7131 29.221212 0.004
GW 260 38 -3.75 -7.4926 29.595844 -3.75 48.7131 29.595844 0.004
GW 401 59 -3.75 -7.4926 29.595844 -3.75 -7.4926 7.4926 0.004
GW 801 7 -3.75 -7.4926 7.4926 -3.75 -7.4926 0 0.004
GW 402 59 -3.75 20.61025 29.595844 -3.75 20.61025 7.4926 0.004
GW 802 7 -3.75 20.61025 7.4926 -3.75 20.61025 0 0.004
GW 403 59 -3.75 48.7131 29.595844 -3.75 48.7131 7.4926 0.004
GW 803 7 -3.75 48.7131 7.4926 -3.75 48.7131 0 0.004
GE 1
EK
TL 101 5 102 5 -50 9
TL 101 5 103 5 -50 9
TL 101 5 104 5 -50 9
TL 101 5 105 5 -50 9
TL 101 5 106 5 -50 9
TL 101 5 107 5 -50 9
TL 101 5 108 5 -50 9
LD 5 0 0 0 3.8E7 0
EX 0 101 5 0 1 0
GN 2 0 0 0 13 0.005
FR 0 1 0 0 20.0 0
RP 0 91 360 1001 0. 0. 1. 1.
