CM Curtain Antenna with Aperiodic Screen Reflector ([205] Centre-fed at 30.0 MHz - Aperiodic Screen Reflector) -- AHRS-4-2-0.3
CM - - - created by 'The I.T.S. S.A.G. ver 0.80' on Mon Sep 23 09:37:25 2013
CM  - Wires 101-199 = Array Elements
CM  - Wires 201-399 = Horizontal Screen Elements
CM  - Wires 401-499 = Vertical Screen Elements
CM  - Wires 801-899 = 'Legs' for Vertical Screen Elements
CE
GW 101 9 0.0 0.0 2.99705 0.0 4.995083 2.99705 0.004
GW 102 9 0.0 7.492625 2.99705 0.0 12.487708 2.99705 0.004
GW 103 9 0.0 14.98525 2.99705 0.0 19.980333 2.99705 0.004
GW 104 9 0.0 22.477875 2.99705 0.0 27.472958 2.99705 0.004
GW 105 9 0.0 0.0 7.992133 0.0 4.995083 7.992133 0.004
GW 106 9 0.0 7.492625 7.992133 0.0 12.487708 7.992133 0.004
GW 107 9 0.0 14.98525 7.992133 0.0 19.980333 7.992133 0.004
GW 108 9 0.0 22.477875 7.992133 0.0 27.472958 7.992133 0.004
GW 201 38 -2.5 -4.9951 0.999 -2.5 32.4754 0.999 0.004
GW 202 38 -2.5 -4.9951 1.248754 -2.5 32.4754 1.248754 0.004
GW 203 38 -2.5 -4.9951 1.498508 -2.5 32.4754 1.498508 0.004
GW 204 38 -2.5 -4.9951 1.748263 -2.5 32.4754 1.748263 0.004
GW 205 38 -2.5 -4.9951 1.998017 -2.5 32.4754 1.998017 0.004
GW 206 38 -2.5 -4.9951 2.247771 -2.5 32.4754 2.247771 0.004
GW 207 38 -2.5 -4.9951 2.497525 -2.5 32.4754 2.497525 0.004
GW 208 38 -2.5 -4.9951 2.747279 -2.5 32.4754 2.747279 0.004
GW 209 38 -2.5 -4.9951 2.997033 -2.5 32.4754 2.997033 0.004
GW 210 38 -2.5 -4.9951 3.246787 -2.5 32.4754 3.246787 0.004
GW 211 38 -2.5 -4.9951 3.496542 -2.5 32.4754 3.496542 0.004
GW 212 38 -2.5 -4.9951 3.746296 -2.5 32.4754 3.746296 0.004
GW 213 38 -2.5 -4.9951 3.99605 -2.5 32.4754 3.99605 0.004
GW 214 38 -2.5 -4.9951 4.245804 -2.5 32.4754 4.245804 0.004
GW 215 38 -2.5 -4.9951 4.495558 -2.5 32.4754 4.495558 0.004
GW 216 38 -2.5 -4.9951 4.745312 -2.5 32.4754 4.745312 0.004
GW 217 38 -2.5 -4.9951 4.995067 -2.5 32.4754 4.995067 0.004
GW 218 38 -2.5 -4.9951 5.244821 -2.5 32.4754 5.244821 0.004
GW 219 38 -2.5 -4.9951 5.494575 -2.5 32.4754 5.494575 0.004
GW 220 38 -2.5 -4.9951 5.744329 -2.5 32.4754 5.744329 0.004
GW 221 38 -2.5 -4.9951 5.994083 -2.5 32.4754 5.994083 0.004
GW 222 38 -2.5 -4.9951 6.243837 -2.5 32.4754 6.243837 0.004
GW 223 38 -2.5 -4.9951 6.493592 -2.5 32.4754 6.493592 0.004
GW 224 38 -2.5 -4.9951 6.743346 -2.5 32.4754 6.743346 0.004
GW 225 38 -2.5 -4.9951 6.9931 -2.5 32.4754 6.9931 0.004
GW 226 38 -2.5 -4.9951 7.242854 -2.5 32.4754 7.242854 0.004
GW 227 38 -2.5 -4.9951 7.492608 -2.5 32.4754 7.492608 0.004
GW 228 38 -2.5 -4.9951 7.742362 -2.5 32.4754 7.742362 0.004
GW 229 38 -2.5 -4.9951 7.992117 -2.5 32.4754 7.992117 0.004
GW 230 38 -2.5 -4.9951 8.241871 -2.5 32.4754 8.241871 0.004
GW 231 38 -2.5 -4.9951 8.491625 -2.5 32.4754 8.491625 0.004
GW 232 38 -2.5 -4.9951 8.741379 -2.5 32.4754 8.741379 0.004
GW 233 38 -2.5 -4.9951 8.991133 -2.5 32.4754 8.991133 0.004
GW 234 38 -2.5 -4.9951 9.240887 -2.5 32.4754 9.240887 0.004
GW 235 38 -2.5 -4.9951 9.490642 -2.5 32.4754 9.490642 0.004
GW 236 38 -2.5 -4.9951 9.740396 -2.5 32.4754 9.740396 0.004
GW 237 38 -2.5 -4.9951 9.99015 -2.5 32.4754 9.99015 0.004
GW 238 38 -2.5 -4.9951 10.239904 -2.5 32.4754 10.239904 0.004
GW 239 38 -2.5 -4.9951 10.489658 -2.5 32.4754 10.489658 0.004
GW 240 38 -2.5 -4.9951 10.739413 -2.5 32.4754 10.739413 0.004
GW 241 38 -2.5 -4.9951 10.989167 -2.5 32.4754 10.989167 0.004
GW 242 38 -2.5 -4.9951 11.238921 -2.5 32.4754 11.238921 0.004
GW 243 38 -2.5 -4.9951 11.488675 -2.5 32.4754 11.488675 0.004
GW 244 38 -2.5 -4.9951 11.738429 -2.5 32.4754 11.738429 0.004
GW 245 38 -2.5 -4.9951 11.988183 -2.5 32.4754 11.988183 0.004
GW 246 38 -2.5 -4.9951 12.237937 -2.5 32.4754 12.237937 0.004
GW 247 38 -2.5 -4.9951 12.487692 -2.5 32.4754 12.487692 0.004
GW 248 38 -2.5 -4.9951 12.737446 -2.5 32.4754 12.737446 0.004
GW 249 38 -2.5 -4.9951 12.9872 -2.5 32.4754 12.9872 0.004
GW 250 38 -2.5 -4.9951 13.236954 -2.5 32.4754 13.236954 0.004
GW 251 38 -2.5 -4.9951 13.486708 -2.5 32.4754 13.486708 0.004
GW 252 38 -2.5 -4.9951 13.736462 -2.5 32.4754 13.736462 0.004
GW 253 38 -2.5 -4.9951 13.986217 -2.5 32.4754 13.986217 0.004
GW 254 38 -2.5 -4.9951 14.235971 -2.5 32.4754 14.235971 0.004
GW 255 38 -2.5 -4.9951 14.485725 -2.5 32.4754 14.485725 0.004
GW 256 38 -2.5 -4.9951 14.735479 -2.5 32.4754 14.735479 0.004
GW 257 38 -2.5 -4.9951 14.985233 -2.5 32.4754 14.985233 0.004
GW 258 38 -2.5 -4.9951 15.234987 -2.5 32.4754 15.234987 0.004
GW 259 38 -2.5 -4.9951 15.484742 -2.5 32.4754 15.484742 0.004
GW 260 38 -2.5 -4.9951 15.734496 -2.5 32.4754 15.734496 0.004
GW 261 38 -2.5 -4.9951 15.98425 -2.5 32.4754 15.98425 0.004
GW 401 60 -2.5 -4.9951 15.98425 -2.5 -4.9951 0.999 0.004
GW 801 1 -2.5 -4.9951 0.999 -2.5 -4.9951 0 0.004
GW 402 60 -2.5 13.74015 15.98425 -2.5 13.74015 0.999 0.004
GW 802 1 -2.5 13.74015 0.999 -2.5 13.74015 0 0.004
GW 403 60 -2.5 32.4754 15.98425 -2.5 32.4754 0.999 0.004
GW 803 1 -2.5 32.4754 0.999 -2.5 32.4754 0 0.004
GE 1
EK
TL 101 5 102 5 -50 9
TL 101 5 103 5 -50 9
TL 101 5 104 5 -50 9
TL 101 5 105 5 -50 9
TL 101 5 106 5 -50 9
TL 101 5 107 5 -50 9
TL 101 5 108 5 -50 9
LD 5 0 0 0 3.8E7 0
EX 0 101 5 0 1 0
GN 2 0 0 0 13 0.005
FR 0 1 0 0 30.0 0
RP 0 91 360 1001 0. 0. 1. 1.
