CM Curtain Antenna with Aperiodic Screen Reflector ([156] Centre-fed at 18.0 MHz - Aperiodic Screen Reflector) -- AHRS-2-4-0.5
CM - - - created by 'The I.T.S. S.A.G. ver 0.80' on Mon Sep 23 09:37:25 2013
CM  - Wires 101-199 = Array Elements
CM  - Wires 201-399 = Horizontal Screen Elements
CM  - Wires 401-499 = Vertical Screen Elements
CM  - Wires 801-899 = 'Legs' for Vertical Screen Elements
CE
GW 101 9 0.0 0.0 8.325139 0.0 8.325139 8.325139 0.004
GW 102 9 0.0 12.487708 8.325139 0.0 20.812847 8.325139 0.004
GW 103 9 0.0 0.0 16.650278 0.0 8.325139 16.650278 0.004
GW 104 9 0.0 12.487708 16.650278 0.0 20.812847 16.650278 0.004
GW 105 9 0.0 0.0 24.975417 0.0 8.325139 24.975417 0.004
GW 106 9 0.0 12.487708 24.975417 0.0 20.812847 24.975417 0.004
GW 107 9 0.0 0.0 33.300556 0.0 8.325139 33.300556 0.004
GW 108 9 0.0 12.487708 33.300556 0.0 20.812847 33.300556 0.004
GW 201 24 -4.16 -8.3251 1.665 -4.16 29.1355 1.665 0.004
GW 202 24 -4.16 -8.3251 2.081257 -4.16 29.1355 2.081257 0.004
GW 203 24 -4.16 -8.3251 2.497514 -4.16 29.1355 2.497514 0.004
GW 204 24 -4.16 -8.3251 2.913771 -4.16 29.1355 2.913771 0.004
GW 205 24 -4.16 -8.3251 3.330028 -4.16 29.1355 3.330028 0.004
GW 206 24 -4.16 -8.3251 3.746285 -4.16 29.1355 3.746285 0.004
GW 207 24 -4.16 -8.3251 4.162542 -4.16 29.1355 4.162542 0.004
GW 208 24 -4.16 -8.3251 4.578799 -4.16 29.1355 4.578799 0.004
GW 209 24 -4.16 -8.3251 4.995056 -4.16 29.1355 4.995056 0.004
GW 210 24 -4.16 -8.3251 5.411313 -4.16 29.1355 5.411313 0.004
GW 211 24 -4.16 -8.3251 5.827569 -4.16 29.1355 5.827569 0.004
GW 212 24 -4.16 -8.3251 6.243826 -4.16 29.1355 6.243826 0.004
GW 213 24 -4.16 -8.3251 6.660083 -4.16 29.1355 6.660083 0.004
GW 214 24 -4.16 -8.3251 7.07634 -4.16 29.1355 7.07634 0.004
GW 215 24 -4.16 -8.3251 7.492597 -4.16 29.1355 7.492597 0.004
GW 216 24 -4.16 -8.3251 7.908854 -4.16 29.1355 7.908854 0.004
GW 217 24 -4.16 -8.3251 8.325111 -4.16 29.1355 8.325111 0.004
GW 218 24 -4.16 -8.3251 8.741368 -4.16 29.1355 8.741368 0.004
GW 219 24 -4.16 -8.3251 9.157625 -4.16 29.1355 9.157625 0.004
GW 220 24 -4.16 -8.3251 9.573882 -4.16 29.1355 9.573882 0.004
GW 221 24 -4.16 -8.3251 9.990139 -4.16 29.1355 9.990139 0.004
GW 222 24 -4.16 -8.3251 10.406396 -4.16 29.1355 10.406396 0.004
GW 223 24 -4.16 -8.3251 10.822653 -4.16 29.1355 10.822653 0.004
GW 224 24 -4.16 -8.3251 11.23891 -4.16 29.1355 11.23891 0.004
GW 225 24 -4.16 -8.3251 11.655167 -4.16 29.1355 11.655167 0.004
GW 226 24 -4.16 -8.3251 12.071424 -4.16 29.1355 12.071424 0.004
GW 227 24 -4.16 -8.3251 12.487681 -4.16 29.1355 12.487681 0.004
GW 228 24 -4.16 -8.3251 12.903938 -4.16 29.1355 12.903938 0.004
GW 229 24 -4.16 -8.3251 13.320194 -4.16 29.1355 13.320194 0.004
GW 230 24 -4.16 -8.3251 13.736451 -4.16 29.1355 13.736451 0.004
GW 231 24 -4.16 -8.3251 14.152708 -4.16 29.1355 14.152708 0.004
GW 232 24 -4.16 -8.3251 14.568965 -4.16 29.1355 14.568965 0.004
GW 233 24 -4.16 -8.3251 14.985222 -4.16 29.1355 14.985222 0.004
GW 234 24 -4.16 -8.3251 15.401479 -4.16 29.1355 15.401479 0.004
GW 235 24 -4.16 -8.3251 15.817736 -4.16 29.1355 15.817736 0.004
GW 236 24 -4.16 -8.3251 16.233993 -4.16 29.1355 16.233993 0.004
GW 237 24 -4.16 -8.3251 16.65025 -4.16 29.1355 16.65025 0.004
GW 238 24 -4.16 -8.3251 17.066507 -4.16 29.1355 17.066507 0.004
GW 239 24 -4.16 -8.3251 17.482764 -4.16 29.1355 17.482764 0.004
GW 240 24 -4.16 -8.3251 17.899021 -4.16 29.1355 17.899021 0.004
GW 241 24 -4.16 -8.3251 18.315278 -4.16 29.1355 18.315278 0.004
GW 242 24 -4.16 -8.3251 18.731535 -4.16 29.1355 18.731535 0.004
GW 243 24 -4.16 -8.3251 19.147792 -4.16 29.1355 19.147792 0.004
GW 244 24 -4.16 -8.3251 19.564049 -4.16 29.1355 19.564049 0.004
GW 245 24 -4.16 -8.3251 19.980306 -4.16 29.1355 19.980306 0.004
GW 246 24 -4.16 -8.3251 20.396562 -4.16 29.1355 20.396562 0.004
GW 247 24 -4.16 -8.3251 20.812819 -4.16 29.1355 20.812819 0.004
GW 248 24 -4.16 -8.3251 21.229076 -4.16 29.1355 21.229076 0.004
GW 249 24 -4.16 -8.3251 21.645333 -4.16 29.1355 21.645333 0.004
GW 250 24 -4.16 -8.3251 22.06159 -4.16 29.1355 22.06159 0.004
GW 251 24 -4.16 -8.3251 22.477847 -4.16 29.1355 22.477847 0.004
GW 252 24 -4.16 -8.3251 22.894104 -4.16 29.1355 22.894104 0.004
GW 253 24 -4.16 -8.3251 23.310361 -4.16 29.1355 23.310361 0.004
GW 254 24 -4.16 -8.3251 23.726618 -4.16 29.1355 23.726618 0.004
GW 255 24 -4.16 -8.3251 24.142875 -4.16 29.1355 24.142875 0.004
GW 256 24 -4.16 -8.3251 24.559132 -4.16 29.1355 24.559132 0.004
GW 257 24 -4.16 -8.3251 24.975389 -4.16 29.1355 24.975389 0.004
GW 258 24 -4.16 -8.3251 25.391646 -4.16 29.1355 25.391646 0.004
GW 259 24 -4.16 -8.3251 25.807903 -4.16 29.1355 25.807903 0.004
GW 260 24 -4.16 -8.3251 26.22416 -4.16 29.1355 26.22416 0.004
GW 261 24 -4.16 -8.3251 26.640417 -4.16 29.1355 26.640417 0.004
GW 262 24 -4.16 -8.3251 27.056674 -4.16 29.1355 27.056674 0.004
GW 263 24 -4.16 -8.3251 27.472931 -4.16 29.1355 27.472931 0.004
GW 264 24 -4.16 -8.3251 27.889187 -4.16 29.1355 27.889187 0.004
GW 265 24 -4.16 -8.3251 28.305444 -4.16 29.1355 28.305444 0.004
GW 266 24 -4.16 -8.3251 28.721701 -4.16 29.1355 28.721701 0.004
GW 267 24 -4.16 -8.3251 29.137958 -4.16 29.1355 29.137958 0.004
GW 268 24 -4.16 -8.3251 29.554215 -4.16 29.1355 29.554215 0.004
GW 269 24 -4.16 -8.3251 29.970472 -4.16 29.1355 29.970472 0.004
GW 270 24 -4.16 -8.3251 30.386729 -4.16 29.1355 30.386729 0.004
GW 271 24 -4.16 -8.3251 30.802986 -4.16 29.1355 30.802986 0.004
GW 272 24 -4.16 -8.3251 31.219243 -4.16 29.1355 31.219243 0.004
GW 273 24 -4.16 -8.3251 31.6355 -4.16 29.1355 31.6355 0.004
GW 274 24 -4.16 -8.3251 32.051757 -4.16 29.1355 32.051757 0.004
GW 275 24 -4.16 -8.3251 32.468014 -4.16 29.1355 32.468014 0.004
GW 276 24 -4.16 -8.3251 32.884271 -4.16 29.1355 32.884271 0.004
GW 277 24 -4.16 -8.3251 33.300528 -4.16 29.1355 33.300528 0.004
GW 278 24 -4.16 -8.3251 33.716785 -4.16 29.1355 33.716785 0.004
GW 279 24 -4.16 -8.3251 34.133042 -4.16 29.1355 34.133042 0.004
GW 280 24 -4.16 -8.3251 34.549299 -4.16 29.1355 34.549299 0.004
GW 281 24 -4.16 -8.3251 34.965556 -4.16 29.1355 34.965556 0.004
GW 282 24 -4.16 -8.3251 35.381813 -4.16 29.1355 35.381813 0.004
GW 283 24 -4.16 -8.3251 35.798069 -4.16 29.1355 35.798069 0.004
GW 284 24 -4.16 -8.3251 36.214326 -4.16 29.1355 36.214326 0.004
GW 285 24 -4.16 -8.3251 36.630583 -4.16 29.1355 36.630583 0.004
GW 286 24 -4.16 -8.3251 37.04684 -4.16 29.1355 37.04684 0.004
GW 287 24 -4.16 -8.3251 37.463097 -4.16 29.1355 37.463097 0.004
GW 288 24 -4.16 -8.3251 37.879354 -4.16 29.1355 37.879354 0.004
GW 289 24 -4.16 -8.3251 38.295611 -4.16 29.1355 38.295611 0.004
GW 290 24 -4.16 -8.3251 38.711868 -4.16 29.1355 38.711868 0.004
GW 291 24 -4.16 -8.3251 39.128125 -4.16 29.1355 39.128125 0.004
GW 292 24 -4.16 -8.3251 39.544382 -4.16 29.1355 39.544382 0.004
GW 293 24 -4.16 -8.3251 39.960639 -4.16 29.1355 39.960639 0.004
GW 294 24 -4.16 -8.3251 40.376896 -4.16 29.1355 40.376896 0.004
GW 295 24 -4.16 -8.3251 40.793153 -4.16 29.1355 40.793153 0.004
GW 296 24 -4.16 -8.3251 41.20941 -4.16 29.1355 41.20941 0.004
GW 297 24 -4.16 -8.3251 41.625667 -4.16 29.1355 41.625667 0.004
GW 298 24 -4.16 -8.3251 42.041924 -4.16 29.1355 42.041924 0.004
GW 299 24 -4.16 -8.3251 42.458181 -4.16 29.1355 42.458181 0.004
GW 300 24 -4.16 -8.3251 42.874437 -4.16 29.1355 42.874437 0.004
GW 301 24 -4.16 -8.3251 43.290694 -4.16 29.1355 43.290694 0.004
GW 401 100 -4.16 -8.3251 43.290694 -4.16 -8.3251 1.665 0.004
GW 801 1 -4.16 -8.3251 1.665 -4.16 -8.3251 0 0.004
GW 402 100 -4.16 10.4052 43.290694 -4.16 10.4052 1.665 0.004
GW 802 1 -4.16 10.4052 1.665 -4.16 10.4052 0 0.004
GW 403 100 -4.16 29.1355 43.290694 -4.16 29.1355 1.665 0.004
GW 803 1 -4.16 29.1355 1.665 -4.16 29.1355 0 0.004
GE 1
EK
TL 101 5 102 5 -50 9
TL 101 5 103 5 -50 9
TL 101 5 104 5 -50 9
TL 101 5 105 5 -50 9
TL 101 5 106 5 -50 9
TL 101 5 107 5 -50 9
TL 101 5 108 5 -50 9
LD 5 0 0 0 3.8E7 0
EX 0 101 5 0 1 0
GN 2 0 0 0 13 0.005
FR 0 1 0 0 18.0 0
RP 0 91 360 1001 0. 0. 1. 1.
