CM Curtain Antenna with Aperiodic Screen Reflector ([205] Centre-fed at 27.0 MHz - Aperiodic Screen Reflector) -- AHRS-4-2-0.3
CM - - - created by 'The I.T.S. S.A.G. ver 0.80' on Mon Sep 23 09:37:25 2013
CM  - Wires 101-199 = Array Elements
CM  - Wires 201-399 = Horizontal Screen Elements
CM  - Wires 401-499 = Vertical Screen Elements
CM  - Wires 801-899 = 'Legs' for Vertical Screen Elements
CE
GW 101 9 0.0 0.0 3.330056 0.0 5.550093 3.330056 0.004
GW 102 9 0.0 8.325139 3.330056 0.0 13.875231 3.330056 0.004
GW 103 9 0.0 16.650278 3.330056 0.0 22.20037 3.330056 0.004
GW 104 9 0.0 24.975417 3.330056 0.0 30.525509 3.330056 0.004
GW 105 9 0.0 0.0 8.880148 0.0 5.550093 8.880148 0.004
GW 106 9 0.0 8.325139 8.880148 0.0 13.875231 8.880148 0.004
GW 107 9 0.0 16.650278 8.880148 0.0 22.20037 8.880148 0.004
GW 108 9 0.0 24.975417 8.880148 0.0 30.525509 8.880148 0.004
GW 201 38 -2.78 -5.5501 1.11 -2.78 36.0905 1.11 0.004
GW 202 38 -2.78 -5.5501 1.387505 -2.78 36.0905 1.387505 0.004
GW 203 38 -2.78 -5.5501 1.665009 -2.78 36.0905 1.665009 0.004
GW 204 38 -2.78 -5.5501 1.942514 -2.78 36.0905 1.942514 0.004
GW 205 38 -2.78 -5.5501 2.220019 -2.78 36.0905 2.220019 0.004
GW 206 38 -2.78 -5.5501 2.497523 -2.78 36.0905 2.497523 0.004
GW 207 38 -2.78 -5.5501 2.775028 -2.78 36.0905 2.775028 0.004
GW 208 38 -2.78 -5.5501 3.052532 -2.78 36.0905 3.052532 0.004
GW 209 38 -2.78 -5.5501 3.330037 -2.78 36.0905 3.330037 0.004
GW 210 38 -2.78 -5.5501 3.607542 -2.78 36.0905 3.607542 0.004
GW 211 38 -2.78 -5.5501 3.885046 -2.78 36.0905 3.885046 0.004
GW 212 38 -2.78 -5.5501 4.162551 -2.78 36.0905 4.162551 0.004
GW 213 38 -2.78 -5.5501 4.440056 -2.78 36.0905 4.440056 0.004
GW 214 38 -2.78 -5.5501 4.71756 -2.78 36.0905 4.71756 0.004
GW 215 38 -2.78 -5.5501 4.995065 -2.78 36.0905 4.995065 0.004
GW 216 38 -2.78 -5.5501 5.272569 -2.78 36.0905 5.272569 0.004
GW 217 38 -2.78 -5.5501 5.550074 -2.78 36.0905 5.550074 0.004
GW 218 38 -2.78 -5.5501 5.827579 -2.78 36.0905 5.827579 0.004
GW 219 38 -2.78 -5.5501 6.105083 -2.78 36.0905 6.105083 0.004
GW 220 38 -2.78 -5.5501 6.382588 -2.78 36.0905 6.382588 0.004
GW 221 38 -2.78 -5.5501 6.660093 -2.78 36.0905 6.660093 0.004
GW 222 38 -2.78 -5.5501 6.937597 -2.78 36.0905 6.937597 0.004
GW 223 38 -2.78 -5.5501 7.215102 -2.78 36.0905 7.215102 0.004
GW 224 38 -2.78 -5.5501 7.492606 -2.78 36.0905 7.492606 0.004
GW 225 38 -2.78 -5.5501 7.770111 -2.78 36.0905 7.770111 0.004
GW 226 38 -2.78 -5.5501 8.047616 -2.78 36.0905 8.047616 0.004
GW 227 38 -2.78 -5.5501 8.32512 -2.78 36.0905 8.32512 0.004
GW 228 38 -2.78 -5.5501 8.602625 -2.78 36.0905 8.602625 0.004
GW 229 38 -2.78 -5.5501 8.88013 -2.78 36.0905 8.88013 0.004
GW 230 38 -2.78 -5.5501 9.157634 -2.78 36.0905 9.157634 0.004
GW 231 38 -2.78 -5.5501 9.435139 -2.78 36.0905 9.435139 0.004
GW 232 38 -2.78 -5.5501 9.712644 -2.78 36.0905 9.712644 0.004
GW 233 38 -2.78 -5.5501 9.990148 -2.78 36.0905 9.990148 0.004
GW 234 38 -2.78 -5.5501 10.267653 -2.78 36.0905 10.267653 0.004
GW 235 38 -2.78 -5.5501 10.545157 -2.78 36.0905 10.545157 0.004
GW 236 38 -2.78 -5.5501 10.822662 -2.78 36.0905 10.822662 0.004
GW 237 38 -2.78 -5.5501 11.100167 -2.78 36.0905 11.100167 0.004
GW 238 38 -2.78 -5.5501 11.377671 -2.78 36.0905 11.377671 0.004
GW 239 38 -2.78 -5.5501 11.655176 -2.78 36.0905 11.655176 0.004
GW 240 38 -2.78 -5.5501 11.932681 -2.78 36.0905 11.932681 0.004
GW 241 38 -2.78 -5.5501 12.210185 -2.78 36.0905 12.210185 0.004
GW 242 38 -2.78 -5.5501 12.48769 -2.78 36.0905 12.48769 0.004
GW 243 38 -2.78 -5.5501 12.765194 -2.78 36.0905 12.765194 0.004
GW 244 38 -2.78 -5.5501 13.042699 -2.78 36.0905 13.042699 0.004
GW 245 38 -2.78 -5.5501 13.320204 -2.78 36.0905 13.320204 0.004
GW 246 38 -2.78 -5.5501 13.597708 -2.78 36.0905 13.597708 0.004
GW 247 38 -2.78 -5.5501 13.875213 -2.78 36.0905 13.875213 0.004
GW 248 38 -2.78 -5.5501 14.152718 -2.78 36.0905 14.152718 0.004
GW 249 38 -2.78 -5.5501 14.430222 -2.78 36.0905 14.430222 0.004
GW 250 38 -2.78 -5.5501 14.707727 -2.78 36.0905 14.707727 0.004
GW 251 38 -2.78 -5.5501 14.985231 -2.78 36.0905 14.985231 0.004
GW 252 38 -2.78 -5.5501 15.262736 -2.78 36.0905 15.262736 0.004
GW 253 38 -2.78 -5.5501 15.540241 -2.78 36.0905 15.540241 0.004
GW 254 38 -2.78 -5.5501 15.817745 -2.78 36.0905 15.817745 0.004
GW 255 38 -2.78 -5.5501 16.09525 -2.78 36.0905 16.09525 0.004
GW 256 38 -2.78 -5.5501 16.372755 -2.78 36.0905 16.372755 0.004
GW 257 38 -2.78 -5.5501 16.650259 -2.78 36.0905 16.650259 0.004
GW 258 38 -2.78 -5.5501 16.927764 -2.78 36.0905 16.927764 0.004
GW 259 38 -2.78 -5.5501 17.205269 -2.78 36.0905 17.205269 0.004
GW 260 38 -2.78 -5.5501 17.482773 -2.78 36.0905 17.482773 0.004
GW 401 59 -2.78 -5.5501 17.482773 -2.78 -5.5501 1.11 0.004
GW 801 1 -2.78 -5.5501 1.11 -2.78 -5.5501 0 0.004
GW 402 59 -2.78 15.2702 17.482773 -2.78 15.2702 1.11 0.004
GW 802 1 -2.78 15.2702 1.11 -2.78 15.2702 0 0.004
GW 403 59 -2.78 36.0905 17.482773 -2.78 36.0905 1.11 0.004
GW 803 1 -2.78 36.0905 1.11 -2.78 36.0905 0 0.004
GE 1
EK
TL 101 5 102 5 -50 9
TL 101 5 103 5 -50 9
TL 101 5 104 5 -50 9
TL 101 5 105 5 -50 9
TL 101 5 106 5 -50 9
TL 101 5 107 5 -50 9
TL 101 5 108 5 -50 9
LD 5 0 0 0 3.8E7 0
EX 0 101 5 0 1 0
GN 2 0 0 0 13 0.005
FR 0 1 0 0 27.0 0
RP 0 91 360 1001 0. 0. 1. 1.
