CM Curtain Antenna with Aperiodic Screen Reflector ([218] Centre-fed at 14.0 MHz - Aperiodic Screen Reflector) -- AHRS-4-4-1.0
CM - - - created by 'The I.T.S. S.A.G. ver 0.80' on Mon Sep 23 09:37:25 2013
CM  - Wires 101-199 = Array Elements
CM  - Wires 201-399 = Horizontal Screen Elements
CM  - Wires 401-499 = Vertical Screen Elements
CM  - Wires 801-899 = 'Legs' for Vertical Screen Elements
CE
GW 101 9 0.0 0.0 21.4075 0.0 10.70375 21.4075 0.004
GW 102 9 0.0 16.055625 21.4075 0.0 26.759375 21.4075 0.004
GW 103 9 0.0 32.11125 21.4075 0.0 42.815 21.4075 0.004
GW 104 9 0.0 48.166875 21.4075 0.0 58.870625 21.4075 0.004
GW 105 9 0.0 0.0 32.11125 0.0 10.70375 32.11125 0.004
GW 106 9 0.0 16.055625 32.11125 0.0 26.759375 32.11125 0.004
GW 107 9 0.0 32.11125 32.11125 0.0 42.815 32.11125 0.004
GW 108 9 0.0 48.166875 32.11125 0.0 58.870625 32.11125 0.004
GW 109 9 0.0 0.0 42.815 0.0 10.70375 42.815 0.004
GW 110 9 0.0 16.055625 42.815 0.0 26.759375 42.815 0.004
GW 111 9 0.0 32.11125 42.815 0.0 42.815 42.815 0.004
GW 112 9 0.0 48.166875 42.815 0.0 58.870625 42.815 0.004
GW 113 9 0.0 0.0 53.51875 0.0 10.70375 53.51875 0.004
GW 114 9 0.0 16.055625 53.51875 0.0 26.759375 53.51875 0.004
GW 115 9 0.0 32.11125 53.51875 0.0 42.815 53.51875 0.004
GW 116 9 0.0 48.166875 53.51875 0.0 58.870625 53.51875 0.004
GW 201 38 -5.35 -10.7037 10.7037 -5.35 69.5688 10.7037 0.004
GW 202 38 -5.35 -10.7037 11.238887 -5.35 69.5688 11.238887 0.004
GW 203 38 -5.35 -10.7037 11.774075 -5.35 69.5688 11.774075 0.004
GW 204 38 -5.35 -10.7037 12.309262 -5.35 69.5688 12.309262 0.004
GW 205 38 -5.35 -10.7037 12.84445 -5.35 69.5688 12.84445 0.004
GW 206 38 -5.35 -10.7037 13.379637 -5.35 69.5688 13.379637 0.004
GW 207 38 -5.35 -10.7037 13.914825 -5.35 69.5688 13.914825 0.004
GW 208 38 -5.35 -10.7037 14.450012 -5.35 69.5688 14.450012 0.004
GW 209 38 -5.35 -10.7037 14.9852 -5.35 69.5688 14.9852 0.004
GW 210 38 -5.35 -10.7037 15.520388 -5.35 69.5688 15.520388 0.004
GW 211 38 -5.35 -10.7037 16.055575 -5.35 69.5688 16.055575 0.004
GW 212 38 -5.35 -10.7037 16.590763 -5.35 69.5688 16.590763 0.004
GW 213 38 -5.35 -10.7037 17.12595 -5.35 69.5688 17.12595 0.004
GW 214 38 -5.35 -10.7037 17.661137 -5.35 69.5688 17.661137 0.004
GW 215 38 -5.35 -10.7037 18.196325 -5.35 69.5688 18.196325 0.004
GW 216 38 -5.35 -10.7037 18.731513 -5.35 69.5688 18.731513 0.004
GW 217 38 -5.35 -10.7037 19.2667 -5.35 69.5688 19.2667 0.004
GW 218 38 -5.35 -10.7037 19.801887 -5.35 69.5688 19.801887 0.004
GW 219 38 -5.35 -10.7037 20.337075 -5.35 69.5688 20.337075 0.004
GW 220 38 -5.35 -10.7037 20.872262 -5.35 69.5688 20.872262 0.004
GW 221 38 -5.35 -10.7037 21.40745 -5.35 69.5688 21.40745 0.004
GW 222 38 -5.35 -10.7037 21.942638 -5.35 69.5688 21.942638 0.004
GW 223 38 -5.35 -10.7037 22.477825 -5.35 69.5688 22.477825 0.004
GW 224 38 -5.35 -10.7037 23.013013 -5.35 69.5688 23.013013 0.004
GW 225 38 -5.35 -10.7037 23.5482 -5.35 69.5688 23.5482 0.004
GW 226 38 -5.35 -10.7037 24.083388 -5.35 69.5688 24.083388 0.004
GW 227 38 -5.35 -10.7037 24.618575 -5.35 69.5688 24.618575 0.004
GW 228 38 -5.35 -10.7037 25.153762 -5.35 69.5688 25.153762 0.004
GW 229 38 -5.35 -10.7037 25.68895 -5.35 69.5688 25.68895 0.004
GW 230 38 -5.35 -10.7037 26.224138 -5.35 69.5688 26.224138 0.004
GW 231 38 -5.35 -10.7037 26.759325 -5.35 69.5688 26.759325 0.004
GW 232 38 -5.35 -10.7037 27.294513 -5.35 69.5688 27.294513 0.004
GW 233 38 -5.35 -10.7037 27.8297 -5.35 69.5688 27.8297 0.004
GW 234 38 -5.35 -10.7037 28.364888 -5.35 69.5688 28.364888 0.004
GW 235 38 -5.35 -10.7037 28.900075 -5.35 69.5688 28.900075 0.004
GW 236 38 -5.35 -10.7037 29.435263 -5.35 69.5688 29.435263 0.004
GW 237 38 -5.35 -10.7037 29.97045 -5.35 69.5688 29.97045 0.004
GW 238 38 -5.35 -10.7037 30.505637 -5.35 69.5688 30.505637 0.004
GW 239 38 -5.35 -10.7037 31.040825 -5.35 69.5688 31.040825 0.004
GW 240 38 -5.35 -10.7037 31.576013 -5.35 69.5688 31.576013 0.004
GW 241 38 -5.35 -10.7037 32.1112 -5.35 69.5688 32.1112 0.004
GW 242 38 -5.35 -10.7037 32.646388 -5.35 69.5688 32.646388 0.004
GW 243 38 -5.35 -10.7037 33.181575 -5.35 69.5688 33.181575 0.004
GW 244 38 -5.35 -10.7037 33.716763 -5.35 69.5688 33.716763 0.004
GW 245 38 -5.35 -10.7037 34.25195 -5.35 69.5688 34.25195 0.004
GW 246 38 -5.35 -10.7037 34.787138 -5.35 69.5688 34.787138 0.004
GW 247 38 -5.35 -10.7037 35.322325 -5.35 69.5688 35.322325 0.004
GW 248 38 -5.35 -10.7037 35.857512 -5.35 69.5688 35.857512 0.004
GW 249 38 -5.35 -10.7037 36.3927 -5.35 69.5688 36.3927 0.004
GW 250 38 -5.35 -10.7037 36.927888 -5.35 69.5688 36.927888 0.004
GW 251 38 -5.35 -10.7037 37.463075 -5.35 69.5688 37.463075 0.004
GW 252 38 -5.35 -10.7037 37.998263 -5.35 69.5688 37.998263 0.004
GW 253 38 -5.35 -10.7037 38.53345 -5.35 69.5688 38.53345 0.004
GW 254 38 -5.35 -10.7037 39.068638 -5.35 69.5688 39.068638 0.004
GW 255 38 -5.35 -10.7037 39.603825 -5.35 69.5688 39.603825 0.004
GW 256 38 -5.35 -10.7037 40.139012 -5.35 69.5688 40.139012 0.004
GW 257 38 -5.35 -10.7037 40.6742 -5.35 69.5688 40.6742 0.004
GW 258 38 -5.35 -10.7037 41.209387 -5.35 69.5688 41.209387 0.004
GW 259 38 -5.35 -10.7037 41.744575 -5.35 69.5688 41.744575 0.004
GW 260 38 -5.35 -10.7037 42.279763 -5.35 69.5688 42.279763 0.004
GW 261 38 -5.35 -10.7037 42.81495 -5.35 69.5688 42.81495 0.004
GW 262 38 -5.35 -10.7037 43.350138 -5.35 69.5688 43.350138 0.004
GW 263 38 -5.35 -10.7037 43.885325 -5.35 69.5688 43.885325 0.004
GW 264 38 -5.35 -10.7037 44.420513 -5.35 69.5688 44.420513 0.004
GW 265 38 -5.35 -10.7037 44.9557 -5.35 69.5688 44.9557 0.004
GW 266 38 -5.35 -10.7037 45.490887 -5.35 69.5688 45.490887 0.004
GW 267 38 -5.35 -10.7037 46.026075 -5.35 69.5688 46.026075 0.004
GW 268 38 -5.35 -10.7037 46.561262 -5.35 69.5688 46.561262 0.004
GW 269 38 -5.35 -10.7037 47.09645 -5.35 69.5688 47.09645 0.004
GW 270 38 -5.35 -10.7037 47.631638 -5.35 69.5688 47.631638 0.004
GW 271 38 -5.35 -10.7037 48.166825 -5.35 69.5688 48.166825 0.004
GW 272 38 -5.35 -10.7037 48.702013 -5.35 69.5688 48.702013 0.004
GW 273 38 -5.35 -10.7037 49.2372 -5.35 69.5688 49.2372 0.004
GW 274 38 -5.35 -10.7037 49.772388 -5.35 69.5688 49.772388 0.004
GW 275 38 -5.35 -10.7037 50.307575 -5.35 69.5688 50.307575 0.004
GW 276 38 -5.35 -10.7037 50.842762 -5.35 69.5688 50.842762 0.004
GW 277 38 -5.35 -10.7037 51.37795 -5.35 69.5688 51.37795 0.004
GW 278 38 -5.35 -10.7037 51.913137 -5.35 69.5688 51.913137 0.004
GW 279 38 -5.35 -10.7037 52.448325 -5.35 69.5688 52.448325 0.004
GW 280 38 -5.35 -10.7037 52.983513 -5.35 69.5688 52.983513 0.004
GW 281 38 -5.35 -10.7037 53.5187 -5.35 69.5688 53.5187 0.004
GW 282 38 -5.35 -10.7037 54.053888 -5.35 69.5688 54.053888 0.004
GW 283 38 -5.35 -10.7037 54.589075 -5.35 69.5688 54.589075 0.004
GW 284 38 -5.35 -10.7037 55.124263 -5.35 69.5688 55.124263 0.004
GW 285 38 -5.35 -10.7037 55.65945 -5.35 69.5688 55.65945 0.004
GW 286 38 -5.35 -10.7037 56.194637 -5.35 69.5688 56.194637 0.004
GW 287 38 -5.35 -10.7037 56.729825 -5.35 69.5688 56.729825 0.004
GW 288 38 -5.35 -10.7037 57.265013 -5.35 69.5688 57.265013 0.004
GW 289 38 -5.35 -10.7037 57.8002 -5.35 69.5688 57.8002 0.004
GW 290 38 -5.35 -10.7037 58.335388 -5.35 69.5688 58.335388 0.004
GW 291 38 -5.35 -10.7037 58.870575 -5.35 69.5688 58.870575 0.004
GW 292 38 -5.35 -10.7037 59.405763 -5.35 69.5688 59.405763 0.004
GW 293 38 -5.35 -10.7037 59.94095 -5.35 69.5688 59.94095 0.004
GW 294 38 -5.35 -10.7037 60.476138 -5.35 69.5688 60.476138 0.004
GW 295 38 -5.35 -10.7037 61.011325 -5.35 69.5688 61.011325 0.004
GW 296 38 -5.35 -10.7037 61.546512 -5.35 69.5688 61.546512 0.004
GW 297 38 -5.35 -10.7037 62.0817 -5.35 69.5688 62.0817 0.004
GW 298 38 -5.35 -10.7037 62.616888 -5.35 69.5688 62.616888 0.004
GW 299 38 -5.35 -10.7037 63.152075 -5.35 69.5688 63.152075 0.004
GW 300 38 -5.35 -10.7037 63.687263 -5.35 69.5688 63.687263 0.004
GW 401 99 -5.35 -10.7037 63.687263 -5.35 -10.7037 10.7037 0.004
GW 801 7 -5.35 -10.7037 10.7037 -5.35 -10.7037 0 0.004
GW 402 99 -5.35 29.43255 63.687263 -5.35 29.43255 10.7037 0.004
GW 802 7 -5.35 29.43255 10.7037 -5.35 29.43255 0 0.004
GW 403 99 -5.35 69.5688 63.687263 -5.35 69.5688 10.7037 0.004
GW 803 7 -5.35 69.5688 10.7037 -5.35 69.5688 0 0.004
GE 1
EK
TL 101 5 102 5 -50 12
TL 101 5 103 5 -50 12
TL 101 5 104 5 -50 12
TL 101 5 105 5 -50 12
TL 101 5 106 5 -50 12
TL 101 5 107 5 -50 12
TL 101 5 108 5 -50 12
TL 101 5 109 5 -50 12
TL 101 5 110 5 -50 12
TL 101 5 111 5 -50 12
TL 101 5 112 5 -50 12
TL 101 5 113 5 -50 12
TL 101 5 114 5 -50 12
TL 101 5 115 5 -50 12
TL 101 5 116 5 -50 12
LD 5 0 0 0 3.8E7 0
EX 0 101 5 0 1 0
GN 2 0 0 0 13 0.005
FR 0 1 0 0 14.0 0
RP 0 91 360 1001 0. 0. 1. 1.
