CM Curtain Antenna with Aperiodic Screen Reflector ([288] Centre-fed at 24.0 MHz - Aperiodic Screen Reflector) -- AHRS-8-4-1.0
CM - - - created by 'The I.T.S. S.A.G. ver 0.80' on Mon Sep 23 09:37:25 2013
CM  - Wires 101-199 = Array Elements
CM  - Wires 201-399 = Horizontal Screen Elements
CM  - Wires 401-499 = Vertical Screen Elements
CM  - Wires 801-899 = 'Legs' for Vertical Screen Elements
CE
GW 101 9 0.0 0.0 12.487708 0.0 6.243854 12.487708 0.004
GW 102 9 0.0 9.365781 12.487708 0.0 15.609635 12.487708 0.004
GW 103 9 0.0 18.731562 12.487708 0.0 24.975417 12.487708 0.004
GW 104 9 0.0 28.097344 12.487708 0.0 34.341198 12.487708 0.004
GW 105 9 0.0 37.463125 12.487708 0.0 43.706979 12.487708 0.004
GW 106 9 0.0 46.828906 12.487708 0.0 53.07276 12.487708 0.004
GW 107 9 0.0 56.194688 12.487708 0.0 62.438542 12.487708 0.004
GW 108 9 0.0 65.560469 12.487708 0.0 71.804323 12.487708 0.004
GW 109 9 0.0 0.0 18.731562 0.0 6.243854 18.731562 0.004
GW 110 9 0.0 9.365781 18.731562 0.0 15.609635 18.731562 0.004
GW 111 9 0.0 18.731562 18.731562 0.0 24.975417 18.731562 0.004
GW 112 9 0.0 28.097344 18.731562 0.0 34.341198 18.731562 0.004
GW 113 9 0.0 37.463125 18.731562 0.0 43.706979 18.731562 0.004
GW 114 9 0.0 46.828906 18.731562 0.0 53.07276 18.731562 0.004
GW 115 9 0.0 56.194688 18.731562 0.0 62.438542 18.731562 0.004
GW 116 9 0.0 65.560469 18.731562 0.0 71.804323 18.731562 0.004
GW 117 9 0.0 0.0 24.975417 0.0 6.243854 24.975417 0.004
GW 118 9 0.0 9.365781 24.975417 0.0 15.609635 24.975417 0.004
GW 119 9 0.0 18.731562 24.975417 0.0 24.975417 24.975417 0.004
GW 120 9 0.0 28.097344 24.975417 0.0 34.341198 24.975417 0.004
GW 121 9 0.0 37.463125 24.975417 0.0 43.706979 24.975417 0.004
GW 122 9 0.0 46.828906 24.975417 0.0 53.07276 24.975417 0.004
GW 123 9 0.0 56.194688 24.975417 0.0 62.438542 24.975417 0.004
GW 124 9 0.0 65.560469 24.975417 0.0 71.804323 24.975417 0.004
GW 125 9 0.0 0.0 31.219271 0.0 6.243854 31.219271 0.004
GW 126 9 0.0 9.365781 31.219271 0.0 15.609635 31.219271 0.004
GW 127 9 0.0 18.731562 31.219271 0.0 24.975417 31.219271 0.004
GW 128 9 0.0 28.097344 31.219271 0.0 34.341198 31.219271 0.004
GW 129 9 0.0 37.463125 31.219271 0.0 43.706979 31.219271 0.004
GW 130 9 0.0 46.828906 31.219271 0.0 53.07276 31.219271 0.004
GW 131 9 0.0 56.194688 31.219271 0.0 62.438542 31.219271 0.004
GW 132 9 0.0 65.560469 31.219271 0.0 71.804323 31.219271 0.004
GW 201 68 -3.12 -6.2439 6.2439 -3.12 78.0346 6.2439 0.004
GW 202 68 -3.12 -6.2439 6.556093 -3.12 78.0346 6.556093 0.004
GW 203 68 -3.12 -6.2439 6.868285 -3.12 78.0346 6.868285 0.004
GW 204 68 -3.12 -6.2439 7.180478 -3.12 78.0346 7.180478 0.004
GW 205 68 -3.12 -6.2439 7.492671 -3.12 78.0346 7.492671 0.004
GW 206 68 -3.12 -6.2439 7.804864 -3.12 78.0346 7.804864 0.004
GW 207 68 -3.12 -6.2439 8.117056 -3.12 78.0346 8.117056 0.004
GW 208 68 -3.12 -6.2439 8.429249 -3.12 78.0346 8.429249 0.004
GW 209 68 -3.12 -6.2439 8.741442 -3.12 78.0346 8.741442 0.004
GW 210 68 -3.12 -6.2439 9.053634 -3.12 78.0346 9.053634 0.004
GW 211 68 -3.12 -6.2439 9.365827 -3.12 78.0346 9.365827 0.004
GW 212 68 -3.12 -6.2439 9.67802 -3.12 78.0346 9.67802 0.004
GW 213 68 -3.12 -6.2439 9.990213 -3.12 78.0346 9.990213 0.004
GW 214 68 -3.12 -6.2439 10.302405 -3.12 78.0346 10.302405 0.004
GW 215 68 -3.12 -6.2439 10.614598 -3.12 78.0346 10.614598 0.004
GW 216 68 -3.12 -6.2439 10.926791 -3.12 78.0346 10.926791 0.004
GW 217 68 -3.12 -6.2439 11.238983 -3.12 78.0346 11.238983 0.004
GW 218 68 -3.12 -6.2439 11.551176 -3.12 78.0346 11.551176 0.004
GW 219 68 -3.12 -6.2439 11.863369 -3.12 78.0346 11.863369 0.004
GW 220 68 -3.12 -6.2439 12.175561 -3.12 78.0346 12.175561 0.004
GW 221 68 -3.12 -6.2439 12.487754 -3.12 78.0346 12.487754 0.004
GW 222 68 -3.12 -6.2439 12.799947 -3.12 78.0346 12.799947 0.004
GW 223 68 -3.12 -6.2439 13.11214 -3.12 78.0346 13.11214 0.004
GW 224 68 -3.12 -6.2439 13.424332 -3.12 78.0346 13.424332 0.004
GW 225 68 -3.12 -6.2439 13.736525 -3.12 78.0346 13.736525 0.004
GW 226 68 -3.12 -6.2439 14.048718 -3.12 78.0346 14.048718 0.004
GW 227 68 -3.12 -6.2439 14.36091 -3.12 78.0346 14.36091 0.004
GW 228 68 -3.12 -6.2439 14.673103 -3.12 78.0346 14.673103 0.004
GW 229 68 -3.12 -6.2439 14.985296 -3.12 78.0346 14.985296 0.004
GW 230 68 -3.12 -6.2439 15.297489 -3.12 78.0346 15.297489 0.004
GW 231 68 -3.12 -6.2439 15.609681 -3.12 78.0346 15.609681 0.004
GW 232 68 -3.12 -6.2439 15.921874 -3.12 78.0346 15.921874 0.004
GW 233 68 -3.12 -6.2439 16.234067 -3.12 78.0346 16.234067 0.004
GW 234 68 -3.12 -6.2439 16.546259 -3.12 78.0346 16.546259 0.004
GW 235 68 -3.12 -6.2439 16.858452 -3.12 78.0346 16.858452 0.004
GW 236 68 -3.12 -6.2439 17.170645 -3.12 78.0346 17.170645 0.004
GW 237 68 -3.12 -6.2439 17.482838 -3.12 78.0346 17.482838 0.004
GW 238 68 -3.12 -6.2439 17.79503 -3.12 78.0346 17.79503 0.004
GW 239 68 -3.12 -6.2439 18.107223 -3.12 78.0346 18.107223 0.004
GW 240 68 -3.12 -6.2439 18.419416 -3.12 78.0346 18.419416 0.004
GW 241 68 -3.12 -6.2439 18.731608 -3.12 78.0346 18.731608 0.004
GW 242 68 -3.12 -6.2439 19.043801 -3.12 78.0346 19.043801 0.004
GW 243 68 -3.12 -6.2439 19.355994 -3.12 78.0346 19.355994 0.004
GW 244 68 -3.12 -6.2439 19.668186 -3.12 78.0346 19.668186 0.004
GW 245 68 -3.12 -6.2439 19.980379 -3.12 78.0346 19.980379 0.004
GW 246 68 -3.12 -6.2439 20.292572 -3.12 78.0346 20.292572 0.004
GW 247 68 -3.12 -6.2439 20.604765 -3.12 78.0346 20.604765 0.004
GW 248 68 -3.12 -6.2439 20.916957 -3.12 78.0346 20.916957 0.004
GW 249 68 -3.12 -6.2439 21.22915 -3.12 78.0346 21.22915 0.004
GW 250 68 -3.12 -6.2439 21.541343 -3.12 78.0346 21.541343 0.004
GW 251 68 -3.12 -6.2439 21.853535 -3.12 78.0346 21.853535 0.004
GW 252 68 -3.12 -6.2439 22.165728 -3.12 78.0346 22.165728 0.004
GW 253 68 -3.12 -6.2439 22.477921 -3.12 78.0346 22.477921 0.004
GW 254 68 -3.12 -6.2439 22.790114 -3.12 78.0346 22.790114 0.004
GW 255 68 -3.12 -6.2439 23.102306 -3.12 78.0346 23.102306 0.004
GW 256 68 -3.12 -6.2439 23.414499 -3.12 78.0346 23.414499 0.004
GW 257 68 -3.12 -6.2439 23.726692 -3.12 78.0346 23.726692 0.004
GW 258 68 -3.12 -6.2439 24.038884 -3.12 78.0346 24.038884 0.004
GW 259 68 -3.12 -6.2439 24.351077 -3.12 78.0346 24.351077 0.004
GW 260 68 -3.12 -6.2439 24.66327 -3.12 78.0346 24.66327 0.004
GW 261 68 -3.12 -6.2439 24.975463 -3.12 78.0346 24.975463 0.004
GW 262 68 -3.12 -6.2439 25.287655 -3.12 78.0346 25.287655 0.004
GW 263 68 -3.12 -6.2439 25.599848 -3.12 78.0346 25.599848 0.004
GW 264 68 -3.12 -6.2439 25.912041 -3.12 78.0346 25.912041 0.004
GW 265 68 -3.12 -6.2439 26.224233 -3.12 78.0346 26.224233 0.004
GW 266 68 -3.12 -6.2439 26.536426 -3.12 78.0346 26.536426 0.004
GW 267 68 -3.12 -6.2439 26.848619 -3.12 78.0346 26.848619 0.004
GW 268 68 -3.12 -6.2439 27.160811 -3.12 78.0346 27.160811 0.004
GW 269 68 -3.12 -6.2439 27.473004 -3.12 78.0346 27.473004 0.004
GW 270 68 -3.12 -6.2439 27.785197 -3.12 78.0346 27.785197 0.004
GW 271 68 -3.12 -6.2439 28.09739 -3.12 78.0346 28.09739 0.004
GW 272 68 -3.12 -6.2439 28.409582 -3.12 78.0346 28.409582 0.004
GW 273 68 -3.12 -6.2439 28.721775 -3.12 78.0346 28.721775 0.004
GW 274 68 -3.12 -6.2439 29.033968 -3.12 78.0346 29.033968 0.004
GW 275 68 -3.12 -6.2439 29.34616 -3.12 78.0346 29.34616 0.004
GW 276 68 -3.12 -6.2439 29.658353 -3.12 78.0346 29.658353 0.004
GW 277 68 -3.12 -6.2439 29.970546 -3.12 78.0346 29.970546 0.004
GW 278 68 -3.12 -6.2439 30.282739 -3.12 78.0346 30.282739 0.004
GW 279 68 -3.12 -6.2439 30.594931 -3.12 78.0346 30.594931 0.004
GW 280 68 -3.12 -6.2439 30.907124 -3.12 78.0346 30.907124 0.004
GW 281 68 -3.12 -6.2439 31.219317 -3.12 78.0346 31.219317 0.004
GW 282 68 -3.12 -6.2439 31.531509 -3.12 78.0346 31.531509 0.004
GW 283 68 -3.12 -6.2439 31.843702 -3.12 78.0346 31.843702 0.004
GW 284 68 -3.12 -6.2439 32.155895 -3.12 78.0346 32.155895 0.004
GW 285 68 -3.12 -6.2439 32.468087 -3.12 78.0346 32.468087 0.004
GW 286 68 -3.12 -6.2439 32.78028 -3.12 78.0346 32.78028 0.004
GW 287 68 -3.12 -6.2439 33.092473 -3.12 78.0346 33.092473 0.004
GW 288 68 -3.12 -6.2439 33.404666 -3.12 78.0346 33.404666 0.004
GW 289 68 -3.12 -6.2439 33.716858 -3.12 78.0346 33.716858 0.004
GW 290 68 -3.12 -6.2439 34.029051 -3.12 78.0346 34.029051 0.004
GW 291 68 -3.12 -6.2439 34.341244 -3.12 78.0346 34.341244 0.004
GW 292 68 -3.12 -6.2439 34.653436 -3.12 78.0346 34.653436 0.004
GW 293 68 -3.12 -6.2439 34.965629 -3.12 78.0346 34.965629 0.004
GW 294 68 -3.12 -6.2439 35.277822 -3.12 78.0346 35.277822 0.004
GW 295 68 -3.12 -6.2439 35.590015 -3.12 78.0346 35.590015 0.004
GW 296 68 -3.12 -6.2439 35.902207 -3.12 78.0346 35.902207 0.004
GW 297 68 -3.12 -6.2439 36.2144 -3.12 78.0346 36.2144 0.004
GW 298 68 -3.12 -6.2439 36.526593 -3.12 78.0346 36.526593 0.004
GW 299 68 -3.12 -6.2439 36.838785 -3.12 78.0346 36.838785 0.004
GW 300 68 -3.12 -6.2439 37.150978 -3.12 78.0346 37.150978 0.004
GW 401 99 -3.12 -6.2439 37.150978 -3.12 -6.2439 6.2439 0.004
GW 801 8 -3.12 -6.2439 6.2439 -3.12 -6.2439 0 0.004
GW 402 99 -3.12 35.89535 37.150978 -3.12 35.89535 6.2439 0.004
GW 802 8 -3.12 35.89535 6.2439 -3.12 35.89535 0 0.004
GW 403 99 -3.12 78.0346 37.150978 -3.12 78.0346 6.2439 0.004
GW 803 8 -3.12 78.0346 6.2439 -3.12 78.0346 0 0.004
GE 1
EK
TL 101 5 102 5 -50 18
TL 101 5 103 5 -50 18
TL 101 5 104 5 -50 18
TL 101 5 105 5 -50 18
TL 101 5 106 5 -50 18
TL 101 5 107 5 -50 18
TL 101 5 108 5 -50 18
TL 101 5 109 5 -50 18
TL 101 5 110 5 -50 18
TL 101 5 111 5 -50 18
TL 101 5 112 5 -50 18
TL 101 5 113 5 -50 18
TL 101 5 114 5 -50 18
TL 101 5 115 5 -50 18
TL 101 5 116 5 -50 18
TL 101 5 117 5 -50 18
TL 101 5 118 5 -50 18
TL 101 5 119 5 -50 18
TL 101 5 120 5 -50 18
TL 101 5 121 5 -50 18
TL 101 5 122 5 -50 18
TL 101 5 123 5 -50 18
TL 101 5 124 5 -50 18
TL 101 5 125 5 -50 18
TL 101 5 126 5 -50 18
TL 101 5 127 5 -50 18
TL 101 5 128 5 -50 18
TL 101 5 129 5 -50 18
TL 101 5 130 5 -50 18
TL 101 5 131 5 -50 18
TL 101 5 132 5 -50 18
LD 5 0 0 0 3.8E7 0
EX 0 101 5 0 1 0
GN 2 0 0 0 13 0.005
FR 0 1 0 0 24.0 0
RP 0 91 360 1001 0. 0. 1. 1.
