CM Curtain Antenna with Aperiodic Screen Reflector ([208] Centre-fed at 26.0 MHz - Aperiodic Screen Reflector) -- AHRS-4-2-1.0
CM - - - created by 'The I.T.S. S.A.G. ver 0.80' on Mon Sep 23 09:37:25 2013
CM  - Wires 101-199 = Array Elements
CM  - Wires 201-399 = Horizontal Screen Elements
CM  - Wires 401-499 = Vertical Screen Elements
CM  - Wires 801-899 = 'Legs' for Vertical Screen Elements
CE
GW 101 9 0.0 0.0 11.527115 0.0 5.763558 11.527115 0.004
GW 102 9 0.0 8.645337 11.527115 0.0 14.408894 11.527115 0.004
GW 103 9 0.0 17.290673 11.527115 0.0 23.054231 11.527115 0.004
GW 104 9 0.0 25.93601 11.527115 0.0 31.699567 11.527115 0.004
GW 105 9 0.0 0.0 17.290673 0.0 5.763558 17.290673 0.004
GW 106 9 0.0 8.645337 17.290673 0.0 14.408894 17.290673 0.004
GW 107 9 0.0 17.290673 17.290673 0.0 23.054231 17.290673 0.004
GW 108 9 0.0 25.93601 17.290673 0.0 31.699567 17.290673 0.004
GW 201 38 -2.88 -5.7636 5.7636 -2.88 37.4577 5.7636 0.004
GW 202 38 -2.88 -5.7636 6.051778 -2.88 37.4577 6.051778 0.004
GW 203 38 -2.88 -5.7636 6.339956 -2.88 37.4577 6.339956 0.004
GW 204 38 -2.88 -5.7636 6.628134 -2.88 37.4577 6.628134 0.004
GW 205 38 -2.88 -5.7636 6.916312 -2.88 37.4577 6.916312 0.004
GW 206 38 -2.88 -5.7636 7.204489 -2.88 37.4577 7.204489 0.004
GW 207 38 -2.88 -5.7636 7.492667 -2.88 37.4577 7.492667 0.004
GW 208 38 -2.88 -5.7636 7.780845 -2.88 37.4577 7.780845 0.004
GW 209 38 -2.88 -5.7636 8.069023 -2.88 37.4577 8.069023 0.004
GW 210 38 -2.88 -5.7636 8.357201 -2.88 37.4577 8.357201 0.004
GW 211 38 -2.88 -5.7636 8.645379 -2.88 37.4577 8.645379 0.004
GW 212 38 -2.88 -5.7636 8.933557 -2.88 37.4577 8.933557 0.004
GW 213 38 -2.88 -5.7636 9.221735 -2.88 37.4577 9.221735 0.004
GW 214 38 -2.88 -5.7636 9.509912 -2.88 37.4577 9.509912 0.004
GW 215 38 -2.88 -5.7636 9.79809 -2.88 37.4577 9.79809 0.004
GW 216 38 -2.88 -5.7636 10.086268 -2.88 37.4577 10.086268 0.004
GW 217 38 -2.88 -5.7636 10.374446 -2.88 37.4577 10.374446 0.004
GW 218 38 -2.88 -5.7636 10.662624 -2.88 37.4577 10.662624 0.004
GW 219 38 -2.88 -5.7636 10.950802 -2.88 37.4577 10.950802 0.004
GW 220 38 -2.88 -5.7636 11.23898 -2.88 37.4577 11.23898 0.004
GW 221 38 -2.88 -5.7636 11.527158 -2.88 37.4577 11.527158 0.004
GW 222 38 -2.88 -5.7636 11.815336 -2.88 37.4577 11.815336 0.004
GW 223 38 -2.88 -5.7636 12.103513 -2.88 37.4577 12.103513 0.004
GW 224 38 -2.88 -5.7636 12.391691 -2.88 37.4577 12.391691 0.004
GW 225 38 -2.88 -5.7636 12.679869 -2.88 37.4577 12.679869 0.004
GW 226 38 -2.88 -5.7636 12.968047 -2.88 37.4577 12.968047 0.004
GW 227 38 -2.88 -5.7636 13.256225 -2.88 37.4577 13.256225 0.004
GW 228 38 -2.88 -5.7636 13.544403 -2.88 37.4577 13.544403 0.004
GW 229 38 -2.88 -5.7636 13.832581 -2.88 37.4577 13.832581 0.004
GW 230 38 -2.88 -5.7636 14.120759 -2.88 37.4577 14.120759 0.004
GW 231 38 -2.88 -5.7636 14.408937 -2.88 37.4577 14.408937 0.004
GW 232 38 -2.88 -5.7636 14.697114 -2.88 37.4577 14.697114 0.004
GW 233 38 -2.88 -5.7636 14.985292 -2.88 37.4577 14.985292 0.004
GW 234 38 -2.88 -5.7636 15.27347 -2.88 37.4577 15.27347 0.004
GW 235 38 -2.88 -5.7636 15.561648 -2.88 37.4577 15.561648 0.004
GW 236 38 -2.88 -5.7636 15.849826 -2.88 37.4577 15.849826 0.004
GW 237 38 -2.88 -5.7636 16.138004 -2.88 37.4577 16.138004 0.004
GW 238 38 -2.88 -5.7636 16.426182 -2.88 37.4577 16.426182 0.004
GW 239 38 -2.88 -5.7636 16.71436 -2.88 37.4577 16.71436 0.004
GW 240 38 -2.88 -5.7636 17.002537 -2.88 37.4577 17.002537 0.004
GW 241 38 -2.88 -5.7636 17.290715 -2.88 37.4577 17.290715 0.004
GW 242 38 -2.88 -5.7636 17.578893 -2.88 37.4577 17.578893 0.004
GW 243 38 -2.88 -5.7636 17.867071 -2.88 37.4577 17.867071 0.004
GW 244 38 -2.88 -5.7636 18.155249 -2.88 37.4577 18.155249 0.004
GW 245 38 -2.88 -5.7636 18.443427 -2.88 37.4577 18.443427 0.004
GW 246 38 -2.88 -5.7636 18.731605 -2.88 37.4577 18.731605 0.004
GW 247 38 -2.88 -5.7636 19.019783 -2.88 37.4577 19.019783 0.004
GW 248 38 -2.88 -5.7636 19.307961 -2.88 37.4577 19.307961 0.004
GW 249 38 -2.88 -5.7636 19.596138 -2.88 37.4577 19.596138 0.004
GW 250 38 -2.88 -5.7636 19.884316 -2.88 37.4577 19.884316 0.004
GW 251 38 -2.88 -5.7636 20.172494 -2.88 37.4577 20.172494 0.004
GW 252 38 -2.88 -5.7636 20.460672 -2.88 37.4577 20.460672 0.004
GW 253 38 -2.88 -5.7636 20.74885 -2.88 37.4577 20.74885 0.004
GW 254 38 -2.88 -5.7636 21.037028 -2.88 37.4577 21.037028 0.004
GW 255 38 -2.88 -5.7636 21.325206 -2.88 37.4577 21.325206 0.004
GW 256 38 -2.88 -5.7636 21.613384 -2.88 37.4577 21.613384 0.004
GW 257 38 -2.88 -5.7636 21.901562 -2.88 37.4577 21.901562 0.004
GW 258 38 -2.88 -5.7636 22.189739 -2.88 37.4577 22.189739 0.004
GW 259 38 -2.88 -5.7636 22.477917 -2.88 37.4577 22.477917 0.004
GW 260 38 -2.88 -5.7636 22.766095 -2.88 37.4577 22.766095 0.004
GW 401 59 -2.88 -5.7636 22.766095 -2.88 -5.7636 5.7636 0.004
GW 801 8 -2.88 -5.7636 5.7636 -2.88 -5.7636 0 0.004
GW 402 59 -2.88 15.84705 22.766095 -2.88 15.84705 5.7636 0.004
GW 802 8 -2.88 15.84705 5.7636 -2.88 15.84705 0 0.004
GW 403 59 -2.88 37.4577 22.766095 -2.88 37.4577 5.7636 0.004
GW 803 8 -2.88 37.4577 5.7636 -2.88 37.4577 0 0.004
GE 1
EK
TL 101 5 102 5 -50 9
TL 101 5 103 5 -50 9
TL 101 5 104 5 -50 9
TL 101 5 105 5 -50 9
TL 101 5 106 5 -50 9
TL 101 5 107 5 -50 9
TL 101 5 108 5 -50 9
LD 5 0 0 0 3.8E7 0
EX 0 101 5 0 1 0
GN 2 0 0 0 13 0.005
FR 0 1 0 0 26.0 0
RP 0 91 360 1001 0. 0. 1. 1.
