CM Curtain Antenna with Aperiodic Screen Reflector ([146] Centre-fed at 23.0 MHz - Aperiodic Screen Reflector) -- AHRS-2-2-0.5
CM - - - created by 'The I.T.S. S.A.G. ver 0.80' on Mon Sep 23 09:37:25 2013
CM  - Wires 101-199 = Array Elements
CM  - Wires 201-399 = Horizontal Screen Elements
CM  - Wires 401-499 = Vertical Screen Elements
CM  - Wires 801-899 = 'Legs' for Vertical Screen Elements
CE
GW 101 9 0.0 0.0 6.515326 0.0 6.515326 6.515326 0.004
GW 102 9 0.0 9.772989 6.515326 0.0 16.288315 6.515326 0.004
GW 103 9 0.0 0.0 13.030652 0.0 6.515326 13.030652 0.004
GW 104 9 0.0 9.772989 13.030652 0.0 16.288315 13.030652 0.004
GW 201 24 -3.26 -6.5153 1.3031 -3.26 22.806 1.3031 0.004
GW 202 24 -3.26 -6.5153 1.628866 -3.26 22.806 1.628866 0.004
GW 203 24 -3.26 -6.5153 1.954633 -3.26 22.806 1.954633 0.004
GW 204 24 -3.26 -6.5153 2.280399 -3.26 22.806 2.280399 0.004
GW 205 24 -3.26 -6.5153 2.606165 -3.26 22.806 2.606165 0.004
GW 206 24 -3.26 -6.5153 2.931932 -3.26 22.806 2.931932 0.004
GW 207 24 -3.26 -6.5153 3.257698 -3.26 22.806 3.257698 0.004
GW 208 24 -3.26 -6.5153 3.583464 -3.26 22.806 3.583464 0.004
GW 209 24 -3.26 -6.5153 3.90923 -3.26 22.806 3.90923 0.004
GW 210 24 -3.26 -6.5153 4.234997 -3.26 22.806 4.234997 0.004
GW 211 24 -3.26 -6.5153 4.560763 -3.26 22.806 4.560763 0.004
GW 212 24 -3.26 -6.5153 4.886529 -3.26 22.806 4.886529 0.004
GW 213 24 -3.26 -6.5153 5.212296 -3.26 22.806 5.212296 0.004
GW 214 24 -3.26 -6.5153 5.538062 -3.26 22.806 5.538062 0.004
GW 215 24 -3.26 -6.5153 5.863828 -3.26 22.806 5.863828 0.004
GW 216 24 -3.26 -6.5153 6.189595 -3.26 22.806 6.189595 0.004
GW 217 24 -3.26 -6.5153 6.515361 -3.26 22.806 6.515361 0.004
GW 218 24 -3.26 -6.5153 6.841127 -3.26 22.806 6.841127 0.004
GW 219 24 -3.26 -6.5153 7.166893 -3.26 22.806 7.166893 0.004
GW 220 24 -3.26 -6.5153 7.49266 -3.26 22.806 7.49266 0.004
GW 221 24 -3.26 -6.5153 7.818426 -3.26 22.806 7.818426 0.004
GW 222 24 -3.26 -6.5153 8.144192 -3.26 22.806 8.144192 0.004
GW 223 24 -3.26 -6.5153 8.469959 -3.26 22.806 8.469959 0.004
GW 224 24 -3.26 -6.5153 8.795725 -3.26 22.806 8.795725 0.004
GW 225 24 -3.26 -6.5153 9.121491 -3.26 22.806 9.121491 0.004
GW 226 24 -3.26 -6.5153 9.447258 -3.26 22.806 9.447258 0.004
GW 227 24 -3.26 -6.5153 9.773024 -3.26 22.806 9.773024 0.004
GW 228 24 -3.26 -6.5153 10.09879 -3.26 22.806 10.09879 0.004
GW 229 24 -3.26 -6.5153 10.424557 -3.26 22.806 10.424557 0.004
GW 230 24 -3.26 -6.5153 10.750323 -3.26 22.806 10.750323 0.004
GW 231 24 -3.26 -6.5153 11.076089 -3.26 22.806 11.076089 0.004
GW 232 24 -3.26 -6.5153 11.401855 -3.26 22.806 11.401855 0.004
GW 233 24 -3.26 -6.5153 11.727622 -3.26 22.806 11.727622 0.004
GW 234 24 -3.26 -6.5153 12.053388 -3.26 22.806 12.053388 0.004
GW 235 24 -3.26 -6.5153 12.379154 -3.26 22.806 12.379154 0.004
GW 236 24 -3.26 -6.5153 12.704921 -3.26 22.806 12.704921 0.004
GW 237 24 -3.26 -6.5153 13.030687 -3.26 22.806 13.030687 0.004
GW 238 24 -3.26 -6.5153 13.356453 -3.26 22.806 13.356453 0.004
GW 239 24 -3.26 -6.5153 13.68222 -3.26 22.806 13.68222 0.004
GW 240 24 -3.26 -6.5153 14.007986 -3.26 22.806 14.007986 0.004
GW 241 24 -3.26 -6.5153 14.333752 -3.26 22.806 14.333752 0.004
GW 242 24 -3.26 -6.5153 14.659518 -3.26 22.806 14.659518 0.004
GW 243 24 -3.26 -6.5153 14.985285 -3.26 22.806 14.985285 0.004
GW 244 24 -3.26 -6.5153 15.311051 -3.26 22.806 15.311051 0.004
GW 245 24 -3.26 -6.5153 15.636817 -3.26 22.806 15.636817 0.004
GW 246 24 -3.26 -6.5153 15.962584 -3.26 22.806 15.962584 0.004
GW 247 24 -3.26 -6.5153 16.28835 -3.26 22.806 16.28835 0.004
GW 248 24 -3.26 -6.5153 16.614116 -3.26 22.806 16.614116 0.004
GW 249 24 -3.26 -6.5153 16.939883 -3.26 22.806 16.939883 0.004
GW 250 24 -3.26 -6.5153 17.265649 -3.26 22.806 17.265649 0.004
GW 251 24 -3.26 -6.5153 17.591415 -3.26 22.806 17.591415 0.004
GW 252 24 -3.26 -6.5153 17.917182 -3.26 22.806 17.917182 0.004
GW 253 24 -3.26 -6.5153 18.242948 -3.26 22.806 18.242948 0.004
GW 254 24 -3.26 -6.5153 18.568714 -3.26 22.806 18.568714 0.004
GW 255 24 -3.26 -6.5153 18.89448 -3.26 22.806 18.89448 0.004
GW 256 24 -3.26 -6.5153 19.220247 -3.26 22.806 19.220247 0.004
GW 257 24 -3.26 -6.5153 19.546013 -3.26 22.806 19.546013 0.004
GW 258 24 -3.26 -6.5153 19.871779 -3.26 22.806 19.871779 0.004
GW 259 24 -3.26 -6.5153 20.197546 -3.26 22.806 20.197546 0.004
GW 260 24 -3.26 -6.5153 20.523312 -3.26 22.806 20.523312 0.004
GW 261 24 -3.26 -6.5153 20.849078 -3.26 22.806 20.849078 0.004
GW 401 60 -3.26 -6.5153 20.849078 -3.26 -6.5153 1.3031 0.004
GW 801 1 -3.26 -6.5153 1.3031 -3.26 -6.5153 0 0.004
GW 402 60 -3.26 8.14535 20.849078 -3.26 8.14535 1.3031 0.004
GW 802 1 -3.26 8.14535 1.3031 -3.26 8.14535 0 0.004
GW 403 60 -3.26 22.806 20.849078 -3.26 22.806 1.3031 0.004
GW 803 1 -3.26 22.806 1.3031 -3.26 22.806 0 0.004
GE 1
EK
TL 101 5 102 5 -50 6
TL 101 5 103 5 -50 6
TL 101 5 104 5 -50 6
LD 5 0 0 0 3.8E7 0
EX 0 101 5 0 1 0
GN 2 0 0 0 13 0.005
FR 0 1 0 0 23.0 0
RP 0 91 360 1001 0. 0. 1. 1.
