CM Curtain Antenna with Aperiodic Screen Reflector ([156] Centre-fed at 14.0 MHz - Aperiodic Screen Reflector) -- AHRS-2-4-0.5
CM - - - created by 'The I.T.S. S.A.G. ver 0.80' on Mon Sep 23 09:37:25 2013
CM  - Wires 101-199 = Array Elements
CM  - Wires 201-399 = Horizontal Screen Elements
CM  - Wires 401-499 = Vertical Screen Elements
CM  - Wires 801-899 = 'Legs' for Vertical Screen Elements
CE
GW 101 9 0.0 0.0 10.70375 0.0 10.70375 10.70375 0.004
GW 102 9 0.0 16.055625 10.70375 0.0 26.759375 10.70375 0.004
GW 103 9 0.0 0.0 21.4075 0.0 10.70375 21.4075 0.004
GW 104 9 0.0 16.055625 21.4075 0.0 26.759375 21.4075 0.004
GW 105 9 0.0 0.0 32.11125 0.0 10.70375 32.11125 0.004
GW 106 9 0.0 16.055625 32.11125 0.0 26.759375 32.11125 0.004
GW 107 9 0.0 0.0 42.815 0.0 10.70375 42.815 0.004
GW 108 9 0.0 16.055625 42.815 0.0 26.759375 42.815 0.004
GW 201 24 -5.35 -10.7037 2.1407 -5.35 37.4613 2.1407 0.004
GW 202 24 -5.35 -10.7037 2.675887 -5.35 37.4613 2.675887 0.004
GW 203 24 -5.35 -10.7037 3.211075 -5.35 37.4613 3.211075 0.004
GW 204 24 -5.35 -10.7037 3.746262 -5.35 37.4613 3.746262 0.004
GW 205 24 -5.35 -10.7037 4.28145 -5.35 37.4613 4.28145 0.004
GW 206 24 -5.35 -10.7037 4.816638 -5.35 37.4613 4.816638 0.004
GW 207 24 -5.35 -10.7037 5.351825 -5.35 37.4613 5.351825 0.004
GW 208 24 -5.35 -10.7037 5.887012 -5.35 37.4613 5.887012 0.004
GW 209 24 -5.35 -10.7037 6.4222 -5.35 37.4613 6.4222 0.004
GW 210 24 -5.35 -10.7037 6.957388 -5.35 37.4613 6.957388 0.004
GW 211 24 -5.35 -10.7037 7.492575 -5.35 37.4613 7.492575 0.004
GW 212 24 -5.35 -10.7037 8.027763 -5.35 37.4613 8.027763 0.004
GW 213 24 -5.35 -10.7037 8.56295 -5.35 37.4613 8.56295 0.004
GW 214 24 -5.35 -10.7037 9.098137 -5.35 37.4613 9.098137 0.004
GW 215 24 -5.35 -10.7037 9.633325 -5.35 37.4613 9.633325 0.004
GW 216 24 -5.35 -10.7037 10.168513 -5.35 37.4613 10.168513 0.004
GW 217 24 -5.35 -10.7037 10.7037 -5.35 37.4613 10.7037 0.004
GW 218 24 -5.35 -10.7037 11.238888 -5.35 37.4613 11.238888 0.004
GW 219 24 -5.35 -10.7037 11.774075 -5.35 37.4613 11.774075 0.004
GW 220 24 -5.35 -10.7037 12.309262 -5.35 37.4613 12.309262 0.004
GW 221 24 -5.35 -10.7037 12.84445 -5.35 37.4613 12.84445 0.004
GW 222 24 -5.35 -10.7037 13.379638 -5.35 37.4613 13.379638 0.004
GW 223 24 -5.35 -10.7037 13.914825 -5.35 37.4613 13.914825 0.004
GW 224 24 -5.35 -10.7037 14.450012 -5.35 37.4613 14.450012 0.004
GW 225 24 -5.35 -10.7037 14.9852 -5.35 37.4613 14.9852 0.004
GW 226 24 -5.35 -10.7037 15.520388 -5.35 37.4613 15.520388 0.004
GW 227 24 -5.35 -10.7037 16.055575 -5.35 37.4613 16.055575 0.004
GW 228 24 -5.35 -10.7037 16.590763 -5.35 37.4613 16.590763 0.004
GW 229 24 -5.35 -10.7037 17.12595 -5.35 37.4613 17.12595 0.004
GW 230 24 -5.35 -10.7037 17.661138 -5.35 37.4613 17.661138 0.004
GW 231 24 -5.35 -10.7037 18.196325 -5.35 37.4613 18.196325 0.004
GW 232 24 -5.35 -10.7037 18.731513 -5.35 37.4613 18.731513 0.004
GW 233 24 -5.35 -10.7037 19.2667 -5.35 37.4613 19.2667 0.004
GW 234 24 -5.35 -10.7037 19.801887 -5.35 37.4613 19.801887 0.004
GW 235 24 -5.35 -10.7037 20.337075 -5.35 37.4613 20.337075 0.004
GW 236 24 -5.35 -10.7037 20.872263 -5.35 37.4613 20.872263 0.004
GW 237 24 -5.35 -10.7037 21.40745 -5.35 37.4613 21.40745 0.004
GW 238 24 -5.35 -10.7037 21.942638 -5.35 37.4613 21.942638 0.004
GW 239 24 -5.35 -10.7037 22.477825 -5.35 37.4613 22.477825 0.004
GW 240 24 -5.35 -10.7037 23.013013 -5.35 37.4613 23.013013 0.004
GW 241 24 -5.35 -10.7037 23.5482 -5.35 37.4613 23.5482 0.004
GW 242 24 -5.35 -10.7037 24.083388 -5.35 37.4613 24.083388 0.004
GW 243 24 -5.35 -10.7037 24.618575 -5.35 37.4613 24.618575 0.004
GW 244 24 -5.35 -10.7037 25.153762 -5.35 37.4613 25.153762 0.004
GW 245 24 -5.35 -10.7037 25.68895 -5.35 37.4613 25.68895 0.004
GW 246 24 -5.35 -10.7037 26.224138 -5.35 37.4613 26.224138 0.004
GW 247 24 -5.35 -10.7037 26.759325 -5.35 37.4613 26.759325 0.004
GW 248 24 -5.35 -10.7037 27.294512 -5.35 37.4613 27.294512 0.004
GW 249 24 -5.35 -10.7037 27.8297 -5.35 37.4613 27.8297 0.004
GW 250 24 -5.35 -10.7037 28.364888 -5.35 37.4613 28.364888 0.004
GW 251 24 -5.35 -10.7037 28.900075 -5.35 37.4613 28.900075 0.004
GW 252 24 -5.35 -10.7037 29.435263 -5.35 37.4613 29.435263 0.004
GW 253 24 -5.35 -10.7037 29.97045 -5.35 37.4613 29.97045 0.004
GW 254 24 -5.35 -10.7037 30.505638 -5.35 37.4613 30.505638 0.004
GW 255 24 -5.35 -10.7037 31.040825 -5.35 37.4613 31.040825 0.004
GW 256 24 -5.35 -10.7037 31.576013 -5.35 37.4613 31.576013 0.004
GW 257 24 -5.35 -10.7037 32.1112 -5.35 37.4613 32.1112 0.004
GW 258 24 -5.35 -10.7037 32.646388 -5.35 37.4613 32.646388 0.004
GW 259 24 -5.35 -10.7037 33.181575 -5.35 37.4613 33.181575 0.004
GW 260 24 -5.35 -10.7037 33.716763 -5.35 37.4613 33.716763 0.004
GW 261 24 -5.35 -10.7037 34.25195 -5.35 37.4613 34.25195 0.004
GW 262 24 -5.35 -10.7037 34.787138 -5.35 37.4613 34.787138 0.004
GW 263 24 -5.35 -10.7037 35.322325 -5.35 37.4613 35.322325 0.004
GW 264 24 -5.35 -10.7037 35.857513 -5.35 37.4613 35.857513 0.004
GW 265 24 -5.35 -10.7037 36.3927 -5.35 37.4613 36.3927 0.004
GW 266 24 -5.35 -10.7037 36.927888 -5.35 37.4613 36.927888 0.004
GW 267 24 -5.35 -10.7037 37.463075 -5.35 37.4613 37.463075 0.004
GW 268 24 -5.35 -10.7037 37.998263 -5.35 37.4613 37.998263 0.004
GW 269 24 -5.35 -10.7037 38.53345 -5.35 37.4613 38.53345 0.004
GW 270 24 -5.35 -10.7037 39.068638 -5.35 37.4613 39.068638 0.004
GW 271 24 -5.35 -10.7037 39.603825 -5.35 37.4613 39.603825 0.004
GW 272 24 -5.35 -10.7037 40.139013 -5.35 37.4613 40.139013 0.004
GW 273 24 -5.35 -10.7037 40.6742 -5.35 37.4613 40.6742 0.004
GW 274 24 -5.35 -10.7037 41.209388 -5.35 37.4613 41.209388 0.004
GW 275 24 -5.35 -10.7037 41.744575 -5.35 37.4613 41.744575 0.004
GW 276 24 -5.35 -10.7037 42.279763 -5.35 37.4613 42.279763 0.004
GW 277 24 -5.35 -10.7037 42.81495 -5.35 37.4613 42.81495 0.004
GW 278 24 -5.35 -10.7037 43.350138 -5.35 37.4613 43.350138 0.004
GW 279 24 -5.35 -10.7037 43.885325 -5.35 37.4613 43.885325 0.004
GW 280 24 -5.35 -10.7037 44.420513 -5.35 37.4613 44.420513 0.004
GW 281 24 -5.35 -10.7037 44.9557 -5.35 37.4613 44.9557 0.004
GW 282 24 -5.35 -10.7037 45.490888 -5.35 37.4613 45.490888 0.004
GW 283 24 -5.35 -10.7037 46.026075 -5.35 37.4613 46.026075 0.004
GW 284 24 -5.35 -10.7037 46.561263 -5.35 37.4613 46.561263 0.004
GW 285 24 -5.35 -10.7037 47.09645 -5.35 37.4613 47.09645 0.004
GW 286 24 -5.35 -10.7037 47.631638 -5.35 37.4613 47.631638 0.004
GW 287 24 -5.35 -10.7037 48.166825 -5.35 37.4613 48.166825 0.004
GW 288 24 -5.35 -10.7037 48.702013 -5.35 37.4613 48.702013 0.004
GW 289 24 -5.35 -10.7037 49.2372 -5.35 37.4613 49.2372 0.004
GW 290 24 -5.35 -10.7037 49.772388 -5.35 37.4613 49.772388 0.004
GW 291 24 -5.35 -10.7037 50.307575 -5.35 37.4613 50.307575 0.004
GW 292 24 -5.35 -10.7037 50.842763 -5.35 37.4613 50.842763 0.004
GW 293 24 -5.35 -10.7037 51.37795 -5.35 37.4613 51.37795 0.004
GW 294 24 -5.35 -10.7037 51.913138 -5.35 37.4613 51.913138 0.004
GW 295 24 -5.35 -10.7037 52.448325 -5.35 37.4613 52.448325 0.004
GW 296 24 -5.35 -10.7037 52.983513 -5.35 37.4613 52.983513 0.004
GW 297 24 -5.35 -10.7037 53.5187 -5.35 37.4613 53.5187 0.004
GW 298 24 -5.35 -10.7037 54.053888 -5.35 37.4613 54.053888 0.004
GW 299 24 -5.35 -10.7037 54.589075 -5.35 37.4613 54.589075 0.004
GW 300 24 -5.35 -10.7037 55.124263 -5.35 37.4613 55.124263 0.004
GW 401 99 -5.35 -10.7037 55.124263 -5.35 -10.7037 2.1407 0.004
GW 801 1 -5.35 -10.7037 2.1407 -5.35 -10.7037 0 0.004
GW 402 99 -5.35 13.3788 55.124263 -5.35 13.3788 2.1407 0.004
GW 802 1 -5.35 13.3788 2.1407 -5.35 13.3788 0 0.004
GW 403 99 -5.35 37.4613 55.124263 -5.35 37.4613 2.1407 0.004
GW 803 1 -5.35 37.4613 2.1407 -5.35 37.4613 0 0.004
GE 1
EK
TL 101 5 102 5 -50 9
TL 101 5 103 5 -50 9
TL 101 5 104 5 -50 9
TL 101 5 105 5 -50 9
TL 101 5 106 5 -50 9
TL 101 5 107 5 -50 9
TL 101 5 108 5 -50 9
LD 5 0 0 0 3.8E7 0
EX 0 101 5 0 1 0
GN 2 0 0 0 13 0.005
FR 0 1 0 0 14.0 0
RP 0 91 360 1001 0. 0. 1. 1.
