CM Curtain Antenna with Aperiodic Screen Reflector ([146] Centre-fed at 12.0 MHz - Aperiodic Screen Reflector) -- AHRS-2-2-0.5
CM - - - created by 'The I.T.S. S.A.G. ver 0.80' on Mon Sep 23 09:37:25 2013
CM  - Wires 101-199 = Array Elements
CM  - Wires 201-399 = Horizontal Screen Elements
CM  - Wires 401-499 = Vertical Screen Elements
CM  - Wires 801-899 = 'Legs' for Vertical Screen Elements
CE
GW 101 9 0.0 0.0 12.487708 0.0 12.487708 12.487708 0.004
GW 102 9 0.0 18.731562 12.487708 0.0 31.219271 12.487708 0.004
GW 103 9 0.0 0.0 24.975417 0.0 12.487708 24.975417 0.004
GW 104 9 0.0 18.731562 24.975417 0.0 31.219271 24.975417 0.004
GW 201 24 -6.24 -12.4877 2.4975 -6.24 43.7031 2.4975 0.004
GW 202 24 -6.24 -12.4877 3.121885 -6.24 43.7031 3.121885 0.004
GW 203 24 -6.24 -12.4877 3.746271 -6.24 43.7031 3.746271 0.004
GW 204 24 -6.24 -12.4877 4.370656 -6.24 43.7031 4.370656 0.004
GW 205 24 -6.24 -12.4877 4.995042 -6.24 43.7031 4.995042 0.004
GW 206 24 -6.24 -12.4877 5.619427 -6.24 43.7031 5.619427 0.004
GW 207 24 -6.24 -12.4877 6.243813 -6.24 43.7031 6.243813 0.004
GW 208 24 -6.24 -12.4877 6.868198 -6.24 43.7031 6.868198 0.004
GW 209 24 -6.24 -12.4877 7.492583 -6.24 43.7031 7.492583 0.004
GW 210 24 -6.24 -12.4877 8.116969 -6.24 43.7031 8.116969 0.004
GW 211 24 -6.24 -12.4877 8.741354 -6.24 43.7031 8.741354 0.004
GW 212 24 -6.24 -12.4877 9.36574 -6.24 43.7031 9.36574 0.004
GW 213 24 -6.24 -12.4877 9.990125 -6.24 43.7031 9.990125 0.004
GW 214 24 -6.24 -12.4877 10.61451 -6.24 43.7031 10.61451 0.004
GW 215 24 -6.24 -12.4877 11.238896 -6.24 43.7031 11.238896 0.004
GW 216 24 -6.24 -12.4877 11.863281 -6.24 43.7031 11.863281 0.004
GW 217 24 -6.24 -12.4877 12.487667 -6.24 43.7031 12.487667 0.004
GW 218 24 -6.24 -12.4877 13.112052 -6.24 43.7031 13.112052 0.004
GW 219 24 -6.24 -12.4877 13.736438 -6.24 43.7031 13.736438 0.004
GW 220 24 -6.24 -12.4877 14.360823 -6.24 43.7031 14.360823 0.004
GW 221 24 -6.24 -12.4877 14.985208 -6.24 43.7031 14.985208 0.004
GW 222 24 -6.24 -12.4877 15.609594 -6.24 43.7031 15.609594 0.004
GW 223 24 -6.24 -12.4877 16.233979 -6.24 43.7031 16.233979 0.004
GW 224 24 -6.24 -12.4877 16.858365 -6.24 43.7031 16.858365 0.004
GW 225 24 -6.24 -12.4877 17.48275 -6.24 43.7031 17.48275 0.004
GW 226 24 -6.24 -12.4877 18.107135 -6.24 43.7031 18.107135 0.004
GW 227 24 -6.24 -12.4877 18.731521 -6.24 43.7031 18.731521 0.004
GW 228 24 -6.24 -12.4877 19.355906 -6.24 43.7031 19.355906 0.004
GW 229 24 -6.24 -12.4877 19.980292 -6.24 43.7031 19.980292 0.004
GW 230 24 -6.24 -12.4877 20.604677 -6.24 43.7031 20.604677 0.004
GW 231 24 -6.24 -12.4877 21.229063 -6.24 43.7031 21.229063 0.004
GW 232 24 -6.24 -12.4877 21.853448 -6.24 43.7031 21.853448 0.004
GW 233 24 -6.24 -12.4877 22.477833 -6.24 43.7031 22.477833 0.004
GW 234 24 -6.24 -12.4877 23.102219 -6.24 43.7031 23.102219 0.004
GW 235 24 -6.24 -12.4877 23.726604 -6.24 43.7031 23.726604 0.004
GW 236 24 -6.24 -12.4877 24.35099 -6.24 43.7031 24.35099 0.004
GW 237 24 -6.24 -12.4877 24.975375 -6.24 43.7031 24.975375 0.004
GW 238 24 -6.24 -12.4877 25.59976 -6.24 43.7031 25.59976 0.004
GW 239 24 -6.24 -12.4877 26.224146 -6.24 43.7031 26.224146 0.004
GW 240 24 -6.24 -12.4877 26.848531 -6.24 43.7031 26.848531 0.004
GW 241 24 -6.24 -12.4877 27.472917 -6.24 43.7031 27.472917 0.004
GW 242 24 -6.24 -12.4877 28.097302 -6.24 43.7031 28.097302 0.004
GW 243 24 -6.24 -12.4877 28.721687 -6.24 43.7031 28.721687 0.004
GW 244 24 -6.24 -12.4877 29.346073 -6.24 43.7031 29.346073 0.004
GW 245 24 -6.24 -12.4877 29.970458 -6.24 43.7031 29.970458 0.004
GW 246 24 -6.24 -12.4877 30.594844 -6.24 43.7031 30.594844 0.004
GW 247 24 -6.24 -12.4877 31.219229 -6.24 43.7031 31.219229 0.004
GW 248 24 -6.24 -12.4877 31.843615 -6.24 43.7031 31.843615 0.004
GW 249 24 -6.24 -12.4877 32.468 -6.24 43.7031 32.468 0.004
GW 250 24 -6.24 -12.4877 33.092385 -6.24 43.7031 33.092385 0.004
GW 251 24 -6.24 -12.4877 33.716771 -6.24 43.7031 33.716771 0.004
GW 252 24 -6.24 -12.4877 34.341156 -6.24 43.7031 34.341156 0.004
GW 253 24 -6.24 -12.4877 34.965542 -6.24 43.7031 34.965542 0.004
GW 254 24 -6.24 -12.4877 35.589927 -6.24 43.7031 35.589927 0.004
GW 255 24 -6.24 -12.4877 36.214313 -6.24 43.7031 36.214313 0.004
GW 256 24 -6.24 -12.4877 36.838698 -6.24 43.7031 36.838698 0.004
GW 257 24 -6.24 -12.4877 37.463083 -6.24 43.7031 37.463083 0.004
GW 258 24 -6.24 -12.4877 38.087469 -6.24 43.7031 38.087469 0.004
GW 259 24 -6.24 -12.4877 38.711854 -6.24 43.7031 38.711854 0.004
GW 260 24 -6.24 -12.4877 39.33624 -6.24 43.7031 39.33624 0.004
GW 261 24 -6.24 -12.4877 39.960625 -6.24 43.7031 39.960625 0.004
GW 401 60 -6.24 -12.4877 39.960625 -6.24 -12.4877 2.4975 0.004
GW 801 1 -6.24 -12.4877 2.4975 -6.24 -12.4877 0 0.004
GW 402 60 -6.24 15.6077 39.960625 -6.24 15.6077 2.4975 0.004
GW 802 1 -6.24 15.6077 2.4975 -6.24 15.6077 0 0.004
GW 403 60 -6.24 43.7031 39.960625 -6.24 43.7031 2.4975 0.004
GW 803 1 -6.24 43.7031 2.4975 -6.24 43.7031 0 0.004
GE 1
EK
TL 101 5 102 5 -50 6
TL 101 5 103 5 -50 6
TL 101 5 104 5 -50 6
LD 5 0 0 0 3.8E7 0
EX 0 101 5 0 1 0
GN 2 0 0 0 13 0.005
FR 0 1 0 0 12.0 0
RP 0 91 360 1001 0. 0. 1. 1.
