CM Curtain Antenna with Aperiodic Screen Reflector ([158] Centre-fed at 23.0 MHz - Aperiodic Screen Reflector) -- AHRS-2-4-1.0
CM - - - created by 'The I.T.S. S.A.G. ver 0.80' on Mon Sep 23 09:37:25 2013
CM  - Wires 101-199 = Array Elements
CM  - Wires 201-399 = Horizontal Screen Elements
CM  - Wires 401-499 = Vertical Screen Elements
CM  - Wires 801-899 = 'Legs' for Vertical Screen Elements
CE
GW 101 9 0.0 0.0 13.030652 0.0 6.515326 13.030652 0.004
GW 102 9 0.0 9.772989 13.030652 0.0 16.288315 13.030652 0.004
GW 103 9 0.0 0.0 19.545978 0.0 6.515326 19.545978 0.004
GW 104 9 0.0 9.772989 19.545978 0.0 16.288315 19.545978 0.004
GW 105 9 0.0 0.0 26.061304 0.0 6.515326 26.061304 0.004
GW 106 9 0.0 9.772989 26.061304 0.0 16.288315 26.061304 0.004
GW 107 9 0.0 0.0 32.57663 0.0 6.515326 32.57663 0.004
GW 108 9 0.0 9.772989 32.57663 0.0 16.288315 32.57663 0.004
GW 201 24 -3.26 -6.5153 6.5153 -3.26 22.806 6.5153 0.004
GW 202 24 -3.26 -6.5153 6.841066 -3.26 22.806 6.841066 0.004
GW 203 24 -3.26 -6.5153 7.166833 -3.26 22.806 7.166833 0.004
GW 204 24 -3.26 -6.5153 7.492599 -3.26 22.806 7.492599 0.004
GW 205 24 -3.26 -6.5153 7.818365 -3.26 22.806 7.818365 0.004
GW 206 24 -3.26 -6.5153 8.144132 -3.26 22.806 8.144132 0.004
GW 207 24 -3.26 -6.5153 8.469898 -3.26 22.806 8.469898 0.004
GW 208 24 -3.26 -6.5153 8.795664 -3.26 22.806 8.795664 0.004
GW 209 24 -3.26 -6.5153 9.12143 -3.26 22.806 9.12143 0.004
GW 210 24 -3.26 -6.5153 9.447197 -3.26 22.806 9.447197 0.004
GW 211 24 -3.26 -6.5153 9.772963 -3.26 22.806 9.772963 0.004
GW 212 24 -3.26 -6.5153 10.098729 -3.26 22.806 10.098729 0.004
GW 213 24 -3.26 -6.5153 10.424496 -3.26 22.806 10.424496 0.004
GW 214 24 -3.26 -6.5153 10.750262 -3.26 22.806 10.750262 0.004
GW 215 24 -3.26 -6.5153 11.076028 -3.26 22.806 11.076028 0.004
GW 216 24 -3.26 -6.5153 11.401795 -3.26 22.806 11.401795 0.004
GW 217 24 -3.26 -6.5153 11.727561 -3.26 22.806 11.727561 0.004
GW 218 24 -3.26 -6.5153 12.053327 -3.26 22.806 12.053327 0.004
GW 219 24 -3.26 -6.5153 12.379093 -3.26 22.806 12.379093 0.004
GW 220 24 -3.26 -6.5153 12.70486 -3.26 22.806 12.70486 0.004
GW 221 24 -3.26 -6.5153 13.030626 -3.26 22.806 13.030626 0.004
GW 222 24 -3.26 -6.5153 13.356392 -3.26 22.806 13.356392 0.004
GW 223 24 -3.26 -6.5153 13.682159 -3.26 22.806 13.682159 0.004
GW 224 24 -3.26 -6.5153 14.007925 -3.26 22.806 14.007925 0.004
GW 225 24 -3.26 -6.5153 14.333691 -3.26 22.806 14.333691 0.004
GW 226 24 -3.26 -6.5153 14.659458 -3.26 22.806 14.659458 0.004
GW 227 24 -3.26 -6.5153 14.985224 -3.26 22.806 14.985224 0.004
GW 228 24 -3.26 -6.5153 15.31099 -3.26 22.806 15.31099 0.004
GW 229 24 -3.26 -6.5153 15.636757 -3.26 22.806 15.636757 0.004
GW 230 24 -3.26 -6.5153 15.962523 -3.26 22.806 15.962523 0.004
GW 231 24 -3.26 -6.5153 16.288289 -3.26 22.806 16.288289 0.004
GW 232 24 -3.26 -6.5153 16.614055 -3.26 22.806 16.614055 0.004
GW 233 24 -3.26 -6.5153 16.939822 -3.26 22.806 16.939822 0.004
GW 234 24 -3.26 -6.5153 17.265588 -3.26 22.806 17.265588 0.004
GW 235 24 -3.26 -6.5153 17.591354 -3.26 22.806 17.591354 0.004
GW 236 24 -3.26 -6.5153 17.917121 -3.26 22.806 17.917121 0.004
GW 237 24 -3.26 -6.5153 18.242887 -3.26 22.806 18.242887 0.004
GW 238 24 -3.26 -6.5153 18.568653 -3.26 22.806 18.568653 0.004
GW 239 24 -3.26 -6.5153 18.89442 -3.26 22.806 18.89442 0.004
GW 240 24 -3.26 -6.5153 19.220186 -3.26 22.806 19.220186 0.004
GW 241 24 -3.26 -6.5153 19.545952 -3.26 22.806 19.545952 0.004
GW 242 24 -3.26 -6.5153 19.871718 -3.26 22.806 19.871718 0.004
GW 243 24 -3.26 -6.5153 20.197485 -3.26 22.806 20.197485 0.004
GW 244 24 -3.26 -6.5153 20.523251 -3.26 22.806 20.523251 0.004
GW 245 24 -3.26 -6.5153 20.849017 -3.26 22.806 20.849017 0.004
GW 246 24 -3.26 -6.5153 21.174784 -3.26 22.806 21.174784 0.004
GW 247 24 -3.26 -6.5153 21.50055 -3.26 22.806 21.50055 0.004
GW 248 24 -3.26 -6.5153 21.826316 -3.26 22.806 21.826316 0.004
GW 249 24 -3.26 -6.5153 22.152083 -3.26 22.806 22.152083 0.004
GW 250 24 -3.26 -6.5153 22.477849 -3.26 22.806 22.477849 0.004
GW 251 24 -3.26 -6.5153 22.803615 -3.26 22.806 22.803615 0.004
GW 252 24 -3.26 -6.5153 23.129382 -3.26 22.806 23.129382 0.004
GW 253 24 -3.26 -6.5153 23.455148 -3.26 22.806 23.455148 0.004
GW 254 24 -3.26 -6.5153 23.780914 -3.26 22.806 23.780914 0.004
GW 255 24 -3.26 -6.5153 24.10668 -3.26 22.806 24.10668 0.004
GW 256 24 -3.26 -6.5153 24.432447 -3.26 22.806 24.432447 0.004
GW 257 24 -3.26 -6.5153 24.758213 -3.26 22.806 24.758213 0.004
GW 258 24 -3.26 -6.5153 25.083979 -3.26 22.806 25.083979 0.004
GW 259 24 -3.26 -6.5153 25.409746 -3.26 22.806 25.409746 0.004
GW 260 24 -3.26 -6.5153 25.735512 -3.26 22.806 25.735512 0.004
GW 261 24 -3.26 -6.5153 26.061278 -3.26 22.806 26.061278 0.004
GW 262 24 -3.26 -6.5153 26.387045 -3.26 22.806 26.387045 0.004
GW 263 24 -3.26 -6.5153 26.712811 -3.26 22.806 26.712811 0.004
GW 264 24 -3.26 -6.5153 27.038577 -3.26 22.806 27.038577 0.004
GW 265 24 -3.26 -6.5153 27.364343 -3.26 22.806 27.364343 0.004
GW 266 24 -3.26 -6.5153 27.69011 -3.26 22.806 27.69011 0.004
GW 267 24 -3.26 -6.5153 28.015876 -3.26 22.806 28.015876 0.004
GW 268 24 -3.26 -6.5153 28.341642 -3.26 22.806 28.341642 0.004
GW 269 24 -3.26 -6.5153 28.667409 -3.26 22.806 28.667409 0.004
GW 270 24 -3.26 -6.5153 28.993175 -3.26 22.806 28.993175 0.004
GW 271 24 -3.26 -6.5153 29.318941 -3.26 22.806 29.318941 0.004
GW 272 24 -3.26 -6.5153 29.644708 -3.26 22.806 29.644708 0.004
GW 273 24 -3.26 -6.5153 29.970474 -3.26 22.806 29.970474 0.004
GW 274 24 -3.26 -6.5153 30.29624 -3.26 22.806 30.29624 0.004
GW 275 24 -3.26 -6.5153 30.622007 -3.26 22.806 30.622007 0.004
GW 276 24 -3.26 -6.5153 30.947773 -3.26 22.806 30.947773 0.004
GW 277 24 -3.26 -6.5153 31.273539 -3.26 22.806 31.273539 0.004
GW 278 24 -3.26 -6.5153 31.599305 -3.26 22.806 31.599305 0.004
GW 279 24 -3.26 -6.5153 31.925072 -3.26 22.806 31.925072 0.004
GW 280 24 -3.26 -6.5153 32.250838 -3.26 22.806 32.250838 0.004
GW 281 24 -3.26 -6.5153 32.576604 -3.26 22.806 32.576604 0.004
GW 282 24 -3.26 -6.5153 32.902371 -3.26 22.806 32.902371 0.004
GW 283 24 -3.26 -6.5153 33.228137 -3.26 22.806 33.228137 0.004
GW 284 24 -3.26 -6.5153 33.553903 -3.26 22.806 33.553903 0.004
GW 285 24 -3.26 -6.5153 33.87967 -3.26 22.806 33.87967 0.004
GW 286 24 -3.26 -6.5153 34.205436 -3.26 22.806 34.205436 0.004
GW 287 24 -3.26 -6.5153 34.531202 -3.26 22.806 34.531202 0.004
GW 288 24 -3.26 -6.5153 34.856968 -3.26 22.806 34.856968 0.004
GW 289 24 -3.26 -6.5153 35.182735 -3.26 22.806 35.182735 0.004
GW 290 24 -3.26 -6.5153 35.508501 -3.26 22.806 35.508501 0.004
GW 291 24 -3.26 -6.5153 35.834267 -3.26 22.806 35.834267 0.004
GW 292 24 -3.26 -6.5153 36.160034 -3.26 22.806 36.160034 0.004
GW 293 24 -3.26 -6.5153 36.4858 -3.26 22.806 36.4858 0.004
GW 294 24 -3.26 -6.5153 36.811566 -3.26 22.806 36.811566 0.004
GW 295 24 -3.26 -6.5153 37.137333 -3.26 22.806 37.137333 0.004
GW 296 24 -3.26 -6.5153 37.463099 -3.26 22.806 37.463099 0.004
GW 297 24 -3.26 -6.5153 37.788865 -3.26 22.806 37.788865 0.004
GW 298 24 -3.26 -6.5153 38.114632 -3.26 22.806 38.114632 0.004
GW 299 24 -3.26 -6.5153 38.440398 -3.26 22.806 38.440398 0.004
GW 300 24 -3.26 -6.5153 38.766164 -3.26 22.806 38.766164 0.004
GW 301 24 -3.26 -6.5153 39.09193 -3.26 22.806 39.09193 0.004
GW 401 100 -3.26 -6.5153 39.09193 -3.26 -6.5153 6.5153 0.004
GW 801 7 -3.26 -6.5153 6.5153 -3.26 -6.5153 0 0.004
GW 402 100 -3.26 8.14535 39.09193 -3.26 8.14535 6.5153 0.004
GW 802 7 -3.26 8.14535 6.5153 -3.26 8.14535 0 0.004
GW 403 100 -3.26 22.806 39.09193 -3.26 22.806 6.5153 0.004
GW 803 7 -3.26 22.806 6.5153 -3.26 22.806 0 0.004
GE 1
EK
TL 101 5 102 5 -50 9
TL 101 5 103 5 -50 9
TL 101 5 104 5 -50 9
TL 101 5 105 5 -50 9
TL 101 5 106 5 -50 9
TL 101 5 107 5 -50 9
TL 101 5 108 5 -50 9
LD 5 0 0 0 3.8E7 0
EX 0 101 5 0 1 0
GN 2 0 0 0 13 0.005
FR 0 1 0 0 23.0 0
RP 0 91 360 1001 0. 0. 1. 1.
