CM Curtain Antenna with Aperiodic Screen Reflector ([226] Centre-fed at 21.0 MHz - Aperiodic Screen Reflector) -- AHRS-4-6-0.5
CM - - - created by 'The I.T.S. S.A.G. ver 0.80' on Mon Sep 23 09:37:25 2013
CM  - Wires 101-199 = Array Elements
CM  - Wires 201-399 = Horizontal Screen Elements
CM  - Wires 401-499 = Vertical Screen Elements
CM  - Wires 801-899 = 'Legs' for Vertical Screen Elements
CE
GW 101 9 0.0 0.0 7.135833 0.0 7.135833 7.135833 0.004
GW 102 9 0.0 10.70375 7.135833 0.0 17.839583 7.135833 0.004
GW 103 9 0.0 21.4075 7.135833 0.0 28.543333 7.135833 0.004
GW 104 9 0.0 32.11125 7.135833 0.0 39.247083 7.135833 0.004
GW 105 9 0.0 0.0 14.271667 0.0 7.135833 14.271667 0.004
GW 106 9 0.0 10.70375 14.271667 0.0 17.839583 14.271667 0.004
GW 107 9 0.0 21.4075 14.271667 0.0 28.543333 14.271667 0.004
GW 108 9 0.0 32.11125 14.271667 0.0 39.247083 14.271667 0.004
GW 109 9 0.0 0.0 21.4075 0.0 7.135833 21.4075 0.004
GW 110 9 0.0 10.70375 21.4075 0.0 17.839583 21.4075 0.004
GW 111 9 0.0 21.4075 21.4075 0.0 28.543333 21.4075 0.004
GW 112 9 0.0 32.11125 21.4075 0.0 39.247083 21.4075 0.004
GW 113 9 0.0 0.0 28.543333 0.0 7.135833 28.543333 0.004
GW 114 9 0.0 10.70375 28.543333 0.0 17.839583 28.543333 0.004
GW 115 9 0.0 21.4075 28.543333 0.0 28.543333 28.543333 0.004
GW 116 9 0.0 32.11125 28.543333 0.0 39.247083 28.543333 0.004
GW 117 9 0.0 0.0 35.679167 0.0 7.135833 35.679167 0.004
GW 118 9 0.0 10.70375 35.679167 0.0 17.839583 35.679167 0.004
GW 119 9 0.0 21.4075 35.679167 0.0 28.543333 35.679167 0.004
GW 120 9 0.0 32.11125 35.679167 0.0 39.247083 35.679167 0.004
GW 121 9 0.0 0.0 42.815 0.0 7.135833 42.815 0.004
GW 122 9 0.0 10.70375 42.815 0.0 17.839583 42.815 0.004
GW 123 9 0.0 21.4075 42.815 0.0 28.543333 42.815 0.004
GW 124 9 0.0 32.11125 42.815 0.0 39.247083 42.815 0.004
GW 201 38 -3.57 -7.1358 1.4272 -3.57 46.3892 1.4272 0.004
GW 202 38 -3.57 -7.1358 1.783992 -3.57 46.3892 1.783992 0.004
GW 203 38 -3.57 -7.1358 2.140783 -3.57 46.3892 2.140783 0.004
GW 204 38 -3.57 -7.1358 2.497575 -3.57 46.3892 2.497575 0.004
GW 205 38 -3.57 -7.1358 2.854367 -3.57 46.3892 2.854367 0.004
GW 206 38 -3.57 -7.1358 3.211158 -3.57 46.3892 3.211158 0.004
GW 207 38 -3.57 -7.1358 3.56795 -3.57 46.3892 3.56795 0.004
GW 208 38 -3.57 -7.1358 3.924742 -3.57 46.3892 3.924742 0.004
GW 209 38 -3.57 -7.1358 4.281533 -3.57 46.3892 4.281533 0.004
GW 210 38 -3.57 -7.1358 4.638325 -3.57 46.3892 4.638325 0.004
GW 211 38 -3.57 -7.1358 4.995117 -3.57 46.3892 4.995117 0.004
GW 212 38 -3.57 -7.1358 5.351908 -3.57 46.3892 5.351908 0.004
GW 213 38 -3.57 -7.1358 5.7087 -3.57 46.3892 5.7087 0.004
GW 214 38 -3.57 -7.1358 6.065492 -3.57 46.3892 6.065492 0.004
GW 215 38 -3.57 -7.1358 6.422283 -3.57 46.3892 6.422283 0.004
GW 216 38 -3.57 -7.1358 6.779075 -3.57 46.3892 6.779075 0.004
GW 217 38 -3.57 -7.1358 7.135867 -3.57 46.3892 7.135867 0.004
GW 218 38 -3.57 -7.1358 7.492658 -3.57 46.3892 7.492658 0.004
GW 219 38 -3.57 -7.1358 7.84945 -3.57 46.3892 7.84945 0.004
GW 220 38 -3.57 -7.1358 8.206242 -3.57 46.3892 8.206242 0.004
GW 221 38 -3.57 -7.1358 8.563033 -3.57 46.3892 8.563033 0.004
GW 222 38 -3.57 -7.1358 8.919825 -3.57 46.3892 8.919825 0.004
GW 223 38 -3.57 -7.1358 9.276617 -3.57 46.3892 9.276617 0.004
GW 224 38 -3.57 -7.1358 9.633408 -3.57 46.3892 9.633408 0.004
GW 225 38 -3.57 -7.1358 9.9902 -3.57 46.3892 9.9902 0.004
GW 226 38 -3.57 -7.1358 10.346992 -3.57 46.3892 10.346992 0.004
GW 227 38 -3.57 -7.1358 10.703783 -3.57 46.3892 10.703783 0.004
GW 228 38 -3.57 -7.1358 11.060575 -3.57 46.3892 11.060575 0.004
GW 229 38 -3.57 -7.1358 11.417367 -3.57 46.3892 11.417367 0.004
GW 230 38 -3.57 -7.1358 11.774158 -3.57 46.3892 11.774158 0.004
GW 231 38 -3.57 -7.1358 12.13095 -3.57 46.3892 12.13095 0.004
GW 232 38 -3.57 -7.1358 12.487742 -3.57 46.3892 12.487742 0.004
GW 233 38 -3.57 -7.1358 12.844533 -3.57 46.3892 12.844533 0.004
GW 234 38 -3.57 -7.1358 13.201325 -3.57 46.3892 13.201325 0.004
GW 235 38 -3.57 -7.1358 13.558117 -3.57 46.3892 13.558117 0.004
GW 236 38 -3.57 -7.1358 13.914908 -3.57 46.3892 13.914908 0.004
GW 237 38 -3.57 -7.1358 14.2717 -3.57 46.3892 14.2717 0.004
GW 238 38 -3.57 -7.1358 14.628492 -3.57 46.3892 14.628492 0.004
GW 239 38 -3.57 -7.1358 14.985283 -3.57 46.3892 14.985283 0.004
GW 240 38 -3.57 -7.1358 15.342075 -3.57 46.3892 15.342075 0.004
GW 241 38 -3.57 -7.1358 15.698867 -3.57 46.3892 15.698867 0.004
GW 242 38 -3.57 -7.1358 16.055658 -3.57 46.3892 16.055658 0.004
GW 243 38 -3.57 -7.1358 16.41245 -3.57 46.3892 16.41245 0.004
GW 244 38 -3.57 -7.1358 16.769242 -3.57 46.3892 16.769242 0.004
GW 245 38 -3.57 -7.1358 17.126033 -3.57 46.3892 17.126033 0.004
GW 246 38 -3.57 -7.1358 17.482825 -3.57 46.3892 17.482825 0.004
GW 247 38 -3.57 -7.1358 17.839617 -3.57 46.3892 17.839617 0.004
GW 248 38 -3.57 -7.1358 18.196408 -3.57 46.3892 18.196408 0.004
GW 249 38 -3.57 -7.1358 18.5532 -3.57 46.3892 18.5532 0.004
GW 250 38 -3.57 -7.1358 18.909992 -3.57 46.3892 18.909992 0.004
GW 251 38 -3.57 -7.1358 19.266783 -3.57 46.3892 19.266783 0.004
GW 252 38 -3.57 -7.1358 19.623575 -3.57 46.3892 19.623575 0.004
GW 253 38 -3.57 -7.1358 19.980367 -3.57 46.3892 19.980367 0.004
GW 254 38 -3.57 -7.1358 20.337158 -3.57 46.3892 20.337158 0.004
GW 255 38 -3.57 -7.1358 20.69395 -3.57 46.3892 20.69395 0.004
GW 256 38 -3.57 -7.1358 21.050742 -3.57 46.3892 21.050742 0.004
GW 257 38 -3.57 -7.1358 21.407533 -3.57 46.3892 21.407533 0.004
GW 258 38 -3.57 -7.1358 21.764325 -3.57 46.3892 21.764325 0.004
GW 259 38 -3.57 -7.1358 22.121117 -3.57 46.3892 22.121117 0.004
GW 260 38 -3.57 -7.1358 22.477908 -3.57 46.3892 22.477908 0.004
GW 261 38 -3.57 -7.1358 22.8347 -3.57 46.3892 22.8347 0.004
GW 262 38 -3.57 -7.1358 23.191492 -3.57 46.3892 23.191492 0.004
GW 263 38 -3.57 -7.1358 23.548283 -3.57 46.3892 23.548283 0.004
GW 264 38 -3.57 -7.1358 23.905075 -3.57 46.3892 23.905075 0.004
GW 265 38 -3.57 -7.1358 24.261867 -3.57 46.3892 24.261867 0.004
GW 266 38 -3.57 -7.1358 24.618658 -3.57 46.3892 24.618658 0.004
GW 267 38 -3.57 -7.1358 24.97545 -3.57 46.3892 24.97545 0.004
GW 268 38 -3.57 -7.1358 25.332242 -3.57 46.3892 25.332242 0.004
GW 269 38 -3.57 -7.1358 25.689033 -3.57 46.3892 25.689033 0.004
GW 270 38 -3.57 -7.1358 26.045825 -3.57 46.3892 26.045825 0.004
GW 271 38 -3.57 -7.1358 26.402617 -3.57 46.3892 26.402617 0.004
GW 272 38 -3.57 -7.1358 26.759408 -3.57 46.3892 26.759408 0.004
GW 273 38 -3.57 -7.1358 27.1162 -3.57 46.3892 27.1162 0.004
GW 274 38 -3.57 -7.1358 27.472992 -3.57 46.3892 27.472992 0.004
GW 275 38 -3.57 -7.1358 27.829783 -3.57 46.3892 27.829783 0.004
GW 276 38 -3.57 -7.1358 28.186575 -3.57 46.3892 28.186575 0.004
GW 277 38 -3.57 -7.1358 28.543367 -3.57 46.3892 28.543367 0.004
GW 278 38 -3.57 -7.1358 28.900158 -3.57 46.3892 28.900158 0.004
GW 279 38 -3.57 -7.1358 29.25695 -3.57 46.3892 29.25695 0.004
GW 280 38 -3.57 -7.1358 29.613742 -3.57 46.3892 29.613742 0.004
GW 281 38 -3.57 -7.1358 29.970533 -3.57 46.3892 29.970533 0.004
GW 282 38 -3.57 -7.1358 30.327325 -3.57 46.3892 30.327325 0.004
GW 283 38 -3.57 -7.1358 30.684117 -3.57 46.3892 30.684117 0.004
GW 284 38 -3.57 -7.1358 31.040908 -3.57 46.3892 31.040908 0.004
GW 285 38 -3.57 -7.1358 31.3977 -3.57 46.3892 31.3977 0.004
GW 286 38 -3.57 -7.1358 31.754492 -3.57 46.3892 31.754492 0.004
GW 287 38 -3.57 -7.1358 32.111283 -3.57 46.3892 32.111283 0.004
GW 288 38 -3.57 -7.1358 32.468075 -3.57 46.3892 32.468075 0.004
GW 289 38 -3.57 -7.1358 32.824867 -3.57 46.3892 32.824867 0.004
GW 290 38 -3.57 -7.1358 33.181658 -3.57 46.3892 33.181658 0.004
GW 291 38 -3.57 -7.1358 33.53845 -3.57 46.3892 33.53845 0.004
GW 292 38 -3.57 -7.1358 33.895242 -3.57 46.3892 33.895242 0.004
GW 293 38 -3.57 -7.1358 34.252033 -3.57 46.3892 34.252033 0.004
GW 294 38 -3.57 -7.1358 34.608825 -3.57 46.3892 34.608825 0.004
GW 295 38 -3.57 -7.1358 34.965617 -3.57 46.3892 34.965617 0.004
GW 296 38 -3.57 -7.1358 35.322408 -3.57 46.3892 35.322408 0.004
GW 297 38 -3.57 -7.1358 35.6792 -3.57 46.3892 35.6792 0.004
GW 298 38 -3.57 -7.1358 36.035992 -3.57 46.3892 36.035992 0.004
GW 299 38 -3.57 -7.1358 36.392783 -3.57 46.3892 36.392783 0.004
GW 300 38 -3.57 -7.1358 36.749575 -3.57 46.3892 36.749575 0.004
GW 301 38 -3.57 -7.1358 37.106367 -3.57 46.3892 37.106367 0.004
GW 302 38 -3.57 -7.1358 37.463158 -3.57 46.3892 37.463158 0.004
GW 303 38 -3.57 -7.1358 37.81995 -3.57 46.3892 37.81995 0.004
GW 304 38 -3.57 -7.1358 38.176742 -3.57 46.3892 38.176742 0.004
GW 305 38 -3.57 -7.1358 38.533533 -3.57 46.3892 38.533533 0.004
GW 306 38 -3.57 -7.1358 38.890325 -3.57 46.3892 38.890325 0.004
GW 307 38 -3.57 -7.1358 39.247117 -3.57 46.3892 39.247117 0.004
GW 308 38 -3.57 -7.1358 39.603908 -3.57 46.3892 39.603908 0.004
GW 309 38 -3.57 -7.1358 39.9607 -3.57 46.3892 39.9607 0.004
GW 310 38 -3.57 -7.1358 40.317492 -3.57 46.3892 40.317492 0.004
GW 311 38 -3.57 -7.1358 40.674283 -3.57 46.3892 40.674283 0.004
GW 312 38 -3.57 -7.1358 41.031075 -3.57 46.3892 41.031075 0.004
GW 313 38 -3.57 -7.1358 41.387867 -3.57 46.3892 41.387867 0.004
GW 314 38 -3.57 -7.1358 41.744658 -3.57 46.3892 41.744658 0.004
GW 315 38 -3.57 -7.1358 42.10145 -3.57 46.3892 42.10145 0.004
GW 316 38 -3.57 -7.1358 42.458242 -3.57 46.3892 42.458242 0.004
GW 317 38 -3.57 -7.1358 42.815033 -3.57 46.3892 42.815033 0.004
GW 318 38 -3.57 -7.1358 43.171825 -3.57 46.3892 43.171825 0.004
GW 319 38 -3.57 -7.1358 43.528617 -3.57 46.3892 43.528617 0.004
GW 320 38 -3.57 -7.1358 43.885408 -3.57 46.3892 43.885408 0.004
GW 321 38 -3.57 -7.1358 44.2422 -3.57 46.3892 44.2422 0.004
GW 322 38 -3.57 -7.1358 44.598992 -3.57 46.3892 44.598992 0.004
GW 323 38 -3.57 -7.1358 44.955783 -3.57 46.3892 44.955783 0.004
GW 324 38 -3.57 -7.1358 45.312575 -3.57 46.3892 45.312575 0.004
GW 325 38 -3.57 -7.1358 45.669367 -3.57 46.3892 45.669367 0.004
GW 326 38 -3.57 -7.1358 46.026158 -3.57 46.3892 46.026158 0.004
GW 327 38 -3.57 -7.1358 46.38295 -3.57 46.3892 46.38295 0.004
GW 328 38 -3.57 -7.1358 46.739742 -3.57 46.3892 46.739742 0.004
GW 329 38 -3.57 -7.1358 47.096533 -3.57 46.3892 47.096533 0.004
GW 330 38 -3.57 -7.1358 47.453325 -3.57 46.3892 47.453325 0.004
GW 331 38 -3.57 -7.1358 47.810117 -3.57 46.3892 47.810117 0.004
GW 332 38 -3.57 -7.1358 48.166908 -3.57 46.3892 48.166908 0.004
GW 333 38 -3.57 -7.1358 48.5237 -3.57 46.3892 48.5237 0.004
GW 334 38 -3.57 -7.1358 48.880492 -3.57 46.3892 48.880492 0.004
GW 335 38 -3.57 -7.1358 49.237283 -3.57 46.3892 49.237283 0.004
GW 336 38 -3.57 -7.1358 49.594075 -3.57 46.3892 49.594075 0.004
GW 337 38 -3.57 -7.1358 49.950867 -3.57 46.3892 49.950867 0.004
GW 338 38 -3.57 -7.1358 50.307658 -3.57 46.3892 50.307658 0.004
GW 339 38 -3.57 -7.1358 50.66445 -3.57 46.3892 50.66445 0.004
GW 340 38 -3.57 -7.1358 51.021242 -3.57 46.3892 51.021242 0.004
GW 341 38 -3.57 -7.1358 51.378033 -3.57 46.3892 51.378033 0.004
GW 401 140 -3.57 -7.1358 51.378033 -3.57 -7.1358 1.4272 0.004
GW 801 1 -3.57 -7.1358 1.4272 -3.57 -7.1358 0 0.004
GW 402 140 -3.57 19.6267 51.378033 -3.57 19.6267 1.4272 0.004
GW 802 1 -3.57 19.6267 1.4272 -3.57 19.6267 0 0.004
GW 403 140 -3.57 46.3892 51.378033 -3.57 46.3892 1.4272 0.004
GW 803 1 -3.57 46.3892 1.4272 -3.57 46.3892 0 0.004
GE 1
EK
TL 101 5 102 5 -50 15
TL 101 5 103 5 -50 15
TL 101 5 104 5 -50 15
TL 101 5 105 5 -50 15
TL 101 5 106 5 -50 15
TL 101 5 107 5 -50 15
TL 101 5 108 5 -50 15
TL 101 5 109 5 -50 15
TL 101 5 110 5 -50 15
TL 101 5 111 5 -50 15
TL 101 5 112 5 -50 15
TL 101 5 113 5 -50 15
TL 101 5 114 5 -50 15
TL 101 5 115 5 -50 15
TL 101 5 116 5 -50 15
TL 101 5 117 5 -50 15
TL 101 5 118 5 -50 15
TL 101 5 119 5 -50 15
TL 101 5 120 5 -50 15
TL 101 5 121 5 -50 15
TL 101 5 122 5 -50 15
TL 101 5 123 5 -50 15
TL 101 5 124 5 -50 15
LD 5 0 0 0 3.8E7 0
EX 0 101 5 0 1 0
GN 2 0 0 0 13 0.005
FR 0 1 0 0 21.0 0
RP 0 91 360 1001 0. 0. 1. 1.
