CM Curtain Antenna with Aperiodic Screen Reflector ([226] Centre-fed at 13.0 MHz - Aperiodic Screen Reflector) -- AHRS-4-6-0.5
CM - - - created by 'The I.T.S. S.A.G. ver 0.80' on Mon Sep 23 09:37:25 2013
CM  - Wires 101-199 = Array Elements
CM  - Wires 201-399 = Horizontal Screen Elements
CM  - Wires 401-499 = Vertical Screen Elements
CM  - Wires 801-899 = 'Legs' for Vertical Screen Elements
CE
GW 101 9 0.0 0.0 11.527115 0.0 11.527115 11.527115 0.004
GW 102 9 0.0 17.290673 11.527115 0.0 28.817788 11.527115 0.004
GW 103 9 0.0 34.581346 11.527115 0.0 46.108462 11.527115 0.004
GW 104 9 0.0 51.872019 11.527115 0.0 63.399135 11.527115 0.004
GW 105 9 0.0 0.0 23.054231 0.0 11.527115 23.054231 0.004
GW 106 9 0.0 17.290673 23.054231 0.0 28.817788 23.054231 0.004
GW 107 9 0.0 34.581346 23.054231 0.0 46.108462 23.054231 0.004
GW 108 9 0.0 51.872019 23.054231 0.0 63.399135 23.054231 0.004
GW 109 9 0.0 0.0 34.581346 0.0 11.527115 34.581346 0.004
GW 110 9 0.0 17.290673 34.581346 0.0 28.817788 34.581346 0.004
GW 111 9 0.0 34.581346 34.581346 0.0 46.108462 34.581346 0.004
GW 112 9 0.0 51.872019 34.581346 0.0 63.399135 34.581346 0.004
GW 113 9 0.0 0.0 46.108462 0.0 11.527115 46.108462 0.004
GW 114 9 0.0 17.290673 46.108462 0.0 28.817788 46.108462 0.004
GW 115 9 0.0 34.581346 46.108462 0.0 46.108462 46.108462 0.004
GW 116 9 0.0 51.872019 46.108462 0.0 63.399135 46.108462 0.004
GW 117 9 0.0 0.0 57.635577 0.0 11.527115 57.635577 0.004
GW 118 9 0.0 17.290673 57.635577 0.0 28.817788 57.635577 0.004
GW 119 9 0.0 34.581346 57.635577 0.0 46.108462 57.635577 0.004
GW 120 9 0.0 51.872019 57.635577 0.0 63.399135 57.635577 0.004
GW 121 9 0.0 0.0 69.162692 0.0 11.527115 69.162692 0.004
GW 122 9 0.0 17.290673 69.162692 0.0 28.817788 69.162692 0.004
GW 123 9 0.0 34.581346 69.162692 0.0 46.108462 69.162692 0.004
GW 124 9 0.0 51.872019 69.162692 0.0 63.399135 69.162692 0.004
GW 201 38 -5.76 -11.5271 2.3054 -5.76 74.9156 2.3054 0.004
GW 202 38 -5.76 -11.5271 2.881756 -5.76 74.9156 2.881756 0.004
GW 203 38 -5.76 -11.5271 3.458112 -5.76 74.9156 3.458112 0.004
GW 204 38 -5.76 -11.5271 4.034467 -5.76 74.9156 4.034467 0.004
GW 205 38 -5.76 -11.5271 4.610823 -5.76 74.9156 4.610823 0.004
GW 206 38 -5.76 -11.5271 5.187179 -5.76 74.9156 5.187179 0.004
GW 207 38 -5.76 -11.5271 5.763535 -5.76 74.9156 5.763535 0.004
GW 208 38 -5.76 -11.5271 6.33989 -5.76 74.9156 6.33989 0.004
GW 209 38 -5.76 -11.5271 6.916246 -5.76 74.9156 6.916246 0.004
GW 210 38 -5.76 -11.5271 7.492602 -5.76 74.9156 7.492602 0.004
GW 211 38 -5.76 -11.5271 8.068958 -5.76 74.9156 8.068958 0.004
GW 212 38 -5.76 -11.5271 8.645313 -5.76 74.9156 8.645313 0.004
GW 213 38 -5.76 -11.5271 9.221669 -5.76 74.9156 9.221669 0.004
GW 214 38 -5.76 -11.5271 9.798025 -5.76 74.9156 9.798025 0.004
GW 215 38 -5.76 -11.5271 10.374381 -5.76 74.9156 10.374381 0.004
GW 216 38 -5.76 -11.5271 10.950737 -5.76 74.9156 10.950737 0.004
GW 217 38 -5.76 -11.5271 11.527092 -5.76 74.9156 11.527092 0.004
GW 218 38 -5.76 -11.5271 12.103448 -5.76 74.9156 12.103448 0.004
GW 219 38 -5.76 -11.5271 12.679804 -5.76 74.9156 12.679804 0.004
GW 220 38 -5.76 -11.5271 13.25616 -5.76 74.9156 13.25616 0.004
GW 221 38 -5.76 -11.5271 13.832515 -5.76 74.9156 13.832515 0.004
GW 222 38 -5.76 -11.5271 14.408871 -5.76 74.9156 14.408871 0.004
GW 223 38 -5.76 -11.5271 14.985227 -5.76 74.9156 14.985227 0.004
GW 224 38 -5.76 -11.5271 15.561583 -5.76 74.9156 15.561583 0.004
GW 225 38 -5.76 -11.5271 16.137938 -5.76 74.9156 16.137938 0.004
GW 226 38 -5.76 -11.5271 16.714294 -5.76 74.9156 16.714294 0.004
GW 227 38 -5.76 -11.5271 17.29065 -5.76 74.9156 17.29065 0.004
GW 228 38 -5.76 -11.5271 17.867006 -5.76 74.9156 17.867006 0.004
GW 229 38 -5.76 -11.5271 18.443362 -5.76 74.9156 18.443362 0.004
GW 230 38 -5.76 -11.5271 19.019717 -5.76 74.9156 19.019717 0.004
GW 231 38 -5.76 -11.5271 19.596073 -5.76 74.9156 19.596073 0.004
GW 232 38 -5.76 -11.5271 20.172429 -5.76 74.9156 20.172429 0.004
GW 233 38 -5.76 -11.5271 20.748785 -5.76 74.9156 20.748785 0.004
GW 234 38 -5.76 -11.5271 21.32514 -5.76 74.9156 21.32514 0.004
GW 235 38 -5.76 -11.5271 21.901496 -5.76 74.9156 21.901496 0.004
GW 236 38 -5.76 -11.5271 22.477852 -5.76 74.9156 22.477852 0.004
GW 237 38 -5.76 -11.5271 23.054208 -5.76 74.9156 23.054208 0.004
GW 238 38 -5.76 -11.5271 23.630563 -5.76 74.9156 23.630563 0.004
GW 239 38 -5.76 -11.5271 24.206919 -5.76 74.9156 24.206919 0.004
GW 240 38 -5.76 -11.5271 24.783275 -5.76 74.9156 24.783275 0.004
GW 241 38 -5.76 -11.5271 25.359631 -5.76 74.9156 25.359631 0.004
GW 242 38 -5.76 -11.5271 25.935987 -5.76 74.9156 25.935987 0.004
GW 243 38 -5.76 -11.5271 26.512342 -5.76 74.9156 26.512342 0.004
GW 244 38 -5.76 -11.5271 27.088698 -5.76 74.9156 27.088698 0.004
GW 245 38 -5.76 -11.5271 27.665054 -5.76 74.9156 27.665054 0.004
GW 246 38 -5.76 -11.5271 28.24141 -5.76 74.9156 28.24141 0.004
GW 247 38 -5.76 -11.5271 28.817765 -5.76 74.9156 28.817765 0.004
GW 248 38 -5.76 -11.5271 29.394121 -5.76 74.9156 29.394121 0.004
GW 249 38 -5.76 -11.5271 29.970477 -5.76 74.9156 29.970477 0.004
GW 250 38 -5.76 -11.5271 30.546833 -5.76 74.9156 30.546833 0.004
GW 251 38 -5.76 -11.5271 31.123188 -5.76 74.9156 31.123188 0.004
GW 252 38 -5.76 -11.5271 31.699544 -5.76 74.9156 31.699544 0.004
GW 253 38 -5.76 -11.5271 32.2759 -5.76 74.9156 32.2759 0.004
GW 254 38 -5.76 -11.5271 32.852256 -5.76 74.9156 32.852256 0.004
GW 255 38 -5.76 -11.5271 33.428612 -5.76 74.9156 33.428612 0.004
GW 256 38 -5.76 -11.5271 34.004967 -5.76 74.9156 34.004967 0.004
GW 257 38 -5.76 -11.5271 34.581323 -5.76 74.9156 34.581323 0.004
GW 258 38 -5.76 -11.5271 35.157679 -5.76 74.9156 35.157679 0.004
GW 259 38 -5.76 -11.5271 35.734035 -5.76 74.9156 35.734035 0.004
GW 260 38 -5.76 -11.5271 36.31039 -5.76 74.9156 36.31039 0.004
GW 261 38 -5.76 -11.5271 36.886746 -5.76 74.9156 36.886746 0.004
GW 262 38 -5.76 -11.5271 37.463102 -5.76 74.9156 37.463102 0.004
GW 263 38 -5.76 -11.5271 38.039458 -5.76 74.9156 38.039458 0.004
GW 264 38 -5.76 -11.5271 38.615813 -5.76 74.9156 38.615813 0.004
GW 265 38 -5.76 -11.5271 39.192169 -5.76 74.9156 39.192169 0.004
GW 266 38 -5.76 -11.5271 39.768525 -5.76 74.9156 39.768525 0.004
GW 267 38 -5.76 -11.5271 40.344881 -5.76 74.9156 40.344881 0.004
GW 268 38 -5.76 -11.5271 40.921237 -5.76 74.9156 40.921237 0.004
GW 269 38 -5.76 -11.5271 41.497592 -5.76 74.9156 41.497592 0.004
GW 270 38 -5.76 -11.5271 42.073948 -5.76 74.9156 42.073948 0.004
GW 271 38 -5.76 -11.5271 42.650304 -5.76 74.9156 42.650304 0.004
GW 272 38 -5.76 -11.5271 43.22666 -5.76 74.9156 43.22666 0.004
GW 273 38 -5.76 -11.5271 43.803015 -5.76 74.9156 43.803015 0.004
GW 274 38 -5.76 -11.5271 44.379371 -5.76 74.9156 44.379371 0.004
GW 275 38 -5.76 -11.5271 44.955727 -5.76 74.9156 44.955727 0.004
GW 276 38 -5.76 -11.5271 45.532083 -5.76 74.9156 45.532083 0.004
GW 277 38 -5.76 -11.5271 46.108438 -5.76 74.9156 46.108438 0.004
GW 278 38 -5.76 -11.5271 46.684794 -5.76 74.9156 46.684794 0.004
GW 279 38 -5.76 -11.5271 47.26115 -5.76 74.9156 47.26115 0.004
GW 280 38 -5.76 -11.5271 47.837506 -5.76 74.9156 47.837506 0.004
GW 281 38 -5.76 -11.5271 48.413862 -5.76 74.9156 48.413862 0.004
GW 282 38 -5.76 -11.5271 48.990217 -5.76 74.9156 48.990217 0.004
GW 283 38 -5.76 -11.5271 49.566573 -5.76 74.9156 49.566573 0.004
GW 284 38 -5.76 -11.5271 50.142929 -5.76 74.9156 50.142929 0.004
GW 285 38 -5.76 -11.5271 50.719285 -5.76 74.9156 50.719285 0.004
GW 286 38 -5.76 -11.5271 51.29564 -5.76 74.9156 51.29564 0.004
GW 287 38 -5.76 -11.5271 51.871996 -5.76 74.9156 51.871996 0.004
GW 288 38 -5.76 -11.5271 52.448352 -5.76 74.9156 52.448352 0.004
GW 289 38 -5.76 -11.5271 53.024708 -5.76 74.9156 53.024708 0.004
GW 290 38 -5.76 -11.5271 53.601063 -5.76 74.9156 53.601063 0.004
GW 291 38 -5.76 -11.5271 54.177419 -5.76 74.9156 54.177419 0.004
GW 292 38 -5.76 -11.5271 54.753775 -5.76 74.9156 54.753775 0.004
GW 293 38 -5.76 -11.5271 55.330131 -5.76 74.9156 55.330131 0.004
GW 294 38 -5.76 -11.5271 55.906487 -5.76 74.9156 55.906487 0.004
GW 295 38 -5.76 -11.5271 56.482842 -5.76 74.9156 56.482842 0.004
GW 296 38 -5.76 -11.5271 57.059198 -5.76 74.9156 57.059198 0.004
GW 297 38 -5.76 -11.5271 57.635554 -5.76 74.9156 57.635554 0.004
GW 298 38 -5.76 -11.5271 58.21191 -5.76 74.9156 58.21191 0.004
GW 299 38 -5.76 -11.5271 58.788265 -5.76 74.9156 58.788265 0.004
GW 300 38 -5.76 -11.5271 59.364621 -5.76 74.9156 59.364621 0.004
GW 301 38 -5.76 -11.5271 59.940977 -5.76 74.9156 59.940977 0.004
GW 302 38 -5.76 -11.5271 60.517333 -5.76 74.9156 60.517333 0.004
GW 303 38 -5.76 -11.5271 61.093688 -5.76 74.9156 61.093688 0.004
GW 304 38 -5.76 -11.5271 61.670044 -5.76 74.9156 61.670044 0.004
GW 305 38 -5.76 -11.5271 62.2464 -5.76 74.9156 62.2464 0.004
GW 306 38 -5.76 -11.5271 62.822756 -5.76 74.9156 62.822756 0.004
GW 307 38 -5.76 -11.5271 63.399112 -5.76 74.9156 63.399112 0.004
GW 308 38 -5.76 -11.5271 63.975467 -5.76 74.9156 63.975467 0.004
GW 309 38 -5.76 -11.5271 64.551823 -5.76 74.9156 64.551823 0.004
GW 310 38 -5.76 -11.5271 65.128179 -5.76 74.9156 65.128179 0.004
GW 311 38 -5.76 -11.5271 65.704535 -5.76 74.9156 65.704535 0.004
GW 312 38 -5.76 -11.5271 66.28089 -5.76 74.9156 66.28089 0.004
GW 313 38 -5.76 -11.5271 66.857246 -5.76 74.9156 66.857246 0.004
GW 314 38 -5.76 -11.5271 67.433602 -5.76 74.9156 67.433602 0.004
GW 315 38 -5.76 -11.5271 68.009958 -5.76 74.9156 68.009958 0.004
GW 316 38 -5.76 -11.5271 68.586313 -5.76 74.9156 68.586313 0.004
GW 317 38 -5.76 -11.5271 69.162669 -5.76 74.9156 69.162669 0.004
GW 318 38 -5.76 -11.5271 69.739025 -5.76 74.9156 69.739025 0.004
GW 319 38 -5.76 -11.5271 70.315381 -5.76 74.9156 70.315381 0.004
GW 320 38 -5.76 -11.5271 70.891737 -5.76 74.9156 70.891737 0.004
GW 321 38 -5.76 -11.5271 71.468092 -5.76 74.9156 71.468092 0.004
GW 322 38 -5.76 -11.5271 72.044448 -5.76 74.9156 72.044448 0.004
GW 323 38 -5.76 -11.5271 72.620804 -5.76 74.9156 72.620804 0.004
GW 324 38 -5.76 -11.5271 73.19716 -5.76 74.9156 73.19716 0.004
GW 325 38 -5.76 -11.5271 73.773515 -5.76 74.9156 73.773515 0.004
GW 326 38 -5.76 -11.5271 74.349871 -5.76 74.9156 74.349871 0.004
GW 327 38 -5.76 -11.5271 74.926227 -5.76 74.9156 74.926227 0.004
GW 328 38 -5.76 -11.5271 75.502583 -5.76 74.9156 75.502583 0.004
GW 329 38 -5.76 -11.5271 76.078938 -5.76 74.9156 76.078938 0.004
GW 330 38 -5.76 -11.5271 76.655294 -5.76 74.9156 76.655294 0.004
GW 331 38 -5.76 -11.5271 77.23165 -5.76 74.9156 77.23165 0.004
GW 332 38 -5.76 -11.5271 77.808006 -5.76 74.9156 77.808006 0.004
GW 333 38 -5.76 -11.5271 78.384362 -5.76 74.9156 78.384362 0.004
GW 334 38 -5.76 -11.5271 78.960717 -5.76 74.9156 78.960717 0.004
GW 335 38 -5.76 -11.5271 79.537073 -5.76 74.9156 79.537073 0.004
GW 336 38 -5.76 -11.5271 80.113429 -5.76 74.9156 80.113429 0.004
GW 337 38 -5.76 -11.5271 80.689785 -5.76 74.9156 80.689785 0.004
GW 338 38 -5.76 -11.5271 81.26614 -5.76 74.9156 81.26614 0.004
GW 339 38 -5.76 -11.5271 81.842496 -5.76 74.9156 81.842496 0.004
GW 340 38 -5.76 -11.5271 82.418852 -5.76 74.9156 82.418852 0.004
GW 341 38 -5.76 -11.5271 82.995208 -5.76 74.9156 82.995208 0.004
GW 401 140 -5.76 -11.5271 82.995208 -5.76 -11.5271 2.3054 0.004
GW 801 1 -5.76 -11.5271 2.3054 -5.76 -11.5271 0 0.004
GW 402 140 -5.76 31.69425 82.995208 -5.76 31.69425 2.3054 0.004
GW 802 1 -5.76 31.69425 2.3054 -5.76 31.69425 0 0.004
GW 403 140 -5.76 74.9156 82.995208 -5.76 74.9156 2.3054 0.004
GW 803 1 -5.76 74.9156 2.3054 -5.76 74.9156 0 0.004
GE 1
EK
TL 101 5 102 5 -50 15
TL 101 5 103 5 -50 15
TL 101 5 104 5 -50 15
TL 101 5 105 5 -50 15
TL 101 5 106 5 -50 15
TL 101 5 107 5 -50 15
TL 101 5 108 5 -50 15
TL 101 5 109 5 -50 15
TL 101 5 110 5 -50 15
TL 101 5 111 5 -50 15
TL 101 5 112 5 -50 15
TL 101 5 113 5 -50 15
TL 101 5 114 5 -50 15
TL 101 5 115 5 -50 15
TL 101 5 116 5 -50 15
TL 101 5 117 5 -50 15
TL 101 5 118 5 -50 15
TL 101 5 119 5 -50 15
TL 101 5 120 5 -50 15
TL 101 5 121 5 -50 15
TL 101 5 122 5 -50 15
TL 101 5 123 5 -50 15
TL 101 5 124 5 -50 15
LD 5 0 0 0 3.8E7 0
EX 0 101 5 0 1 0
GN 2 0 0 0 13 0.005
FR 0 1 0 0 13.0 0
RP 0 91 360 1001 0. 0. 1. 1.
