CM Curtain Antenna with Aperiodic Screen Reflector ([288] Centre-fed at 20.0 MHz - Aperiodic Screen Reflector) -- AHRS-8-4-1.0
CM - - - created by 'The I.T.S. S.A.G. ver 0.80' on Mon Sep 23 09:37:25 2013
CM  - Wires 101-199 = Array Elements
CM  - Wires 201-399 = Horizontal Screen Elements
CM  - Wires 401-499 = Vertical Screen Elements
CM  - Wires 801-899 = 'Legs' for Vertical Screen Elements
CE
GW 101 9 0.0 0.0 14.98525 0.0 7.492625 14.98525 0.004
GW 102 9 0.0 11.238937 14.98525 0.0 18.731562 14.98525 0.004
GW 103 9 0.0 22.477875 14.98525 0.0 29.9705 14.98525 0.004
GW 104 9 0.0 33.716812 14.98525 0.0 41.209437 14.98525 0.004
GW 105 9 0.0 44.95575 14.98525 0.0 52.448375 14.98525 0.004
GW 106 9 0.0 56.194688 14.98525 0.0 63.687312 14.98525 0.004
GW 107 9 0.0 67.433625 14.98525 0.0 74.92625 14.98525 0.004
GW 108 9 0.0 78.672562 14.98525 0.0 86.165188 14.98525 0.004
GW 109 9 0.0 0.0 22.477875 0.0 7.492625 22.477875 0.004
GW 110 9 0.0 11.238937 22.477875 0.0 18.731562 22.477875 0.004
GW 111 9 0.0 22.477875 22.477875 0.0 29.9705 22.477875 0.004
GW 112 9 0.0 33.716812 22.477875 0.0 41.209437 22.477875 0.004
GW 113 9 0.0 44.95575 22.477875 0.0 52.448375 22.477875 0.004
GW 114 9 0.0 56.194688 22.477875 0.0 63.687312 22.477875 0.004
GW 115 9 0.0 67.433625 22.477875 0.0 74.92625 22.477875 0.004
GW 116 9 0.0 78.672562 22.477875 0.0 86.165188 22.477875 0.004
GW 117 9 0.0 0.0 29.9705 0.0 7.492625 29.9705 0.004
GW 118 9 0.0 11.238937 29.9705 0.0 18.731562 29.9705 0.004
GW 119 9 0.0 22.477875 29.9705 0.0 29.9705 29.9705 0.004
GW 120 9 0.0 33.716812 29.9705 0.0 41.209437 29.9705 0.004
GW 121 9 0.0 44.95575 29.9705 0.0 52.448375 29.9705 0.004
GW 122 9 0.0 56.194688 29.9705 0.0 63.687312 29.9705 0.004
GW 123 9 0.0 67.433625 29.9705 0.0 74.92625 29.9705 0.004
GW 124 9 0.0 78.672562 29.9705 0.0 86.165188 29.9705 0.004
GW 125 9 0.0 0.0 37.463125 0.0 7.492625 37.463125 0.004
GW 126 9 0.0 11.238937 37.463125 0.0 18.731562 37.463125 0.004
GW 127 9 0.0 22.477875 37.463125 0.0 29.9705 37.463125 0.004
GW 128 9 0.0 33.716812 37.463125 0.0 41.209437 37.463125 0.004
GW 129 9 0.0 44.95575 37.463125 0.0 52.448375 37.463125 0.004
GW 130 9 0.0 56.194688 37.463125 0.0 63.687312 37.463125 0.004
GW 131 9 0.0 67.433625 37.463125 0.0 74.92625 37.463125 0.004
GW 132 9 0.0 78.672562 37.463125 0.0 86.165188 37.463125 0.004
GW 201 68 -3.75 -7.4926 7.4926 -3.75 93.6836 7.4926 0.004
GW 202 68 -3.75 -7.4926 7.867231 -3.75 93.6836 7.867231 0.004
GW 203 68 -3.75 -7.4926 8.241862 -3.75 93.6836 8.241862 0.004
GW 204 68 -3.75 -7.4926 8.616494 -3.75 93.6836 8.616494 0.004
GW 205 68 -3.75 -7.4926 8.991125 -3.75 93.6836 8.991125 0.004
GW 206 68 -3.75 -7.4926 9.365756 -3.75 93.6836 9.365756 0.004
GW 207 68 -3.75 -7.4926 9.740388 -3.75 93.6836 9.740388 0.004
GW 208 68 -3.75 -7.4926 10.115019 -3.75 93.6836 10.115019 0.004
GW 209 68 -3.75 -7.4926 10.48965 -3.75 93.6836 10.48965 0.004
GW 210 68 -3.75 -7.4926 10.864281 -3.75 93.6836 10.864281 0.004
GW 211 68 -3.75 -7.4926 11.238912 -3.75 93.6836 11.238912 0.004
GW 212 68 -3.75 -7.4926 11.613544 -3.75 93.6836 11.613544 0.004
GW 213 68 -3.75 -7.4926 11.988175 -3.75 93.6836 11.988175 0.004
GW 214 68 -3.75 -7.4926 12.362806 -3.75 93.6836 12.362806 0.004
GW 215 68 -3.75 -7.4926 12.737437 -3.75 93.6836 12.737437 0.004
GW 216 68 -3.75 -7.4926 13.112069 -3.75 93.6836 13.112069 0.004
GW 217 68 -3.75 -7.4926 13.4867 -3.75 93.6836 13.4867 0.004
GW 218 68 -3.75 -7.4926 13.861331 -3.75 93.6836 13.861331 0.004
GW 219 68 -3.75 -7.4926 14.235962 -3.75 93.6836 14.235962 0.004
GW 220 68 -3.75 -7.4926 14.610594 -3.75 93.6836 14.610594 0.004
GW 221 68 -3.75 -7.4926 14.985225 -3.75 93.6836 14.985225 0.004
GW 222 68 -3.75 -7.4926 15.359856 -3.75 93.6836 15.359856 0.004
GW 223 68 -3.75 -7.4926 15.734488 -3.75 93.6836 15.734488 0.004
GW 224 68 -3.75 -7.4926 16.109119 -3.75 93.6836 16.109119 0.004
GW 225 68 -3.75 -7.4926 16.48375 -3.75 93.6836 16.48375 0.004
GW 226 68 -3.75 -7.4926 16.858381 -3.75 93.6836 16.858381 0.004
GW 227 68 -3.75 -7.4926 17.233013 -3.75 93.6836 17.233013 0.004
GW 228 68 -3.75 -7.4926 17.607644 -3.75 93.6836 17.607644 0.004
GW 229 68 -3.75 -7.4926 17.982275 -3.75 93.6836 17.982275 0.004
GW 230 68 -3.75 -7.4926 18.356906 -3.75 93.6836 18.356906 0.004
GW 231 68 -3.75 -7.4926 18.731537 -3.75 93.6836 18.731537 0.004
GW 232 68 -3.75 -7.4926 19.106169 -3.75 93.6836 19.106169 0.004
GW 233 68 -3.75 -7.4926 19.4808 -3.75 93.6836 19.4808 0.004
GW 234 68 -3.75 -7.4926 19.855431 -3.75 93.6836 19.855431 0.004
GW 235 68 -3.75 -7.4926 20.230062 -3.75 93.6836 20.230062 0.004
GW 236 68 -3.75 -7.4926 20.604694 -3.75 93.6836 20.604694 0.004
GW 237 68 -3.75 -7.4926 20.979325 -3.75 93.6836 20.979325 0.004
GW 238 68 -3.75 -7.4926 21.353956 -3.75 93.6836 21.353956 0.004
GW 239 68 -3.75 -7.4926 21.728587 -3.75 93.6836 21.728587 0.004
GW 240 68 -3.75 -7.4926 22.103219 -3.75 93.6836 22.103219 0.004
GW 241 68 -3.75 -7.4926 22.47785 -3.75 93.6836 22.47785 0.004
GW 242 68 -3.75 -7.4926 22.852481 -3.75 93.6836 22.852481 0.004
GW 243 68 -3.75 -7.4926 23.227113 -3.75 93.6836 23.227113 0.004
GW 244 68 -3.75 -7.4926 23.601744 -3.75 93.6836 23.601744 0.004
GW 245 68 -3.75 -7.4926 23.976375 -3.75 93.6836 23.976375 0.004
GW 246 68 -3.75 -7.4926 24.351006 -3.75 93.6836 24.351006 0.004
GW 247 68 -3.75 -7.4926 24.725637 -3.75 93.6836 24.725637 0.004
GW 248 68 -3.75 -7.4926 25.100269 -3.75 93.6836 25.100269 0.004
GW 249 68 -3.75 -7.4926 25.4749 -3.75 93.6836 25.4749 0.004
GW 250 68 -3.75 -7.4926 25.849531 -3.75 93.6836 25.849531 0.004
GW 251 68 -3.75 -7.4926 26.224162 -3.75 93.6836 26.224162 0.004
GW 252 68 -3.75 -7.4926 26.598794 -3.75 93.6836 26.598794 0.004
GW 253 68 -3.75 -7.4926 26.973425 -3.75 93.6836 26.973425 0.004
GW 254 68 -3.75 -7.4926 27.348056 -3.75 93.6836 27.348056 0.004
GW 255 68 -3.75 -7.4926 27.722687 -3.75 93.6836 27.722687 0.004
GW 256 68 -3.75 -7.4926 28.097319 -3.75 93.6836 28.097319 0.004
GW 257 68 -3.75 -7.4926 28.47195 -3.75 93.6836 28.47195 0.004
GW 258 68 -3.75 -7.4926 28.846581 -3.75 93.6836 28.846581 0.004
GW 259 68 -3.75 -7.4926 29.221212 -3.75 93.6836 29.221212 0.004
GW 260 68 -3.75 -7.4926 29.595844 -3.75 93.6836 29.595844 0.004
GW 261 68 -3.75 -7.4926 29.970475 -3.75 93.6836 29.970475 0.004
GW 262 68 -3.75 -7.4926 30.345106 -3.75 93.6836 30.345106 0.004
GW 263 68 -3.75 -7.4926 30.719737 -3.75 93.6836 30.719737 0.004
GW 264 68 -3.75 -7.4926 31.094369 -3.75 93.6836 31.094369 0.004
GW 265 68 -3.75 -7.4926 31.469 -3.75 93.6836 31.469 0.004
GW 266 68 -3.75 -7.4926 31.843631 -3.75 93.6836 31.843631 0.004
GW 267 68 -3.75 -7.4926 32.218263 -3.75 93.6836 32.218263 0.004
GW 268 68 -3.75 -7.4926 32.592894 -3.75 93.6836 32.592894 0.004
GW 269 68 -3.75 -7.4926 32.967525 -3.75 93.6836 32.967525 0.004
GW 270 68 -3.75 -7.4926 33.342156 -3.75 93.6836 33.342156 0.004
GW 271 68 -3.75 -7.4926 33.716788 -3.75 93.6836 33.716788 0.004
GW 272 68 -3.75 -7.4926 34.091419 -3.75 93.6836 34.091419 0.004
GW 273 68 -3.75 -7.4926 34.46605 -3.75 93.6836 34.46605 0.004
GW 274 68 -3.75 -7.4926 34.840681 -3.75 93.6836 34.840681 0.004
GW 275 68 -3.75 -7.4926 35.215312 -3.75 93.6836 35.215312 0.004
GW 276 68 -3.75 -7.4926 35.589944 -3.75 93.6836 35.589944 0.004
GW 277 68 -3.75 -7.4926 35.964575 -3.75 93.6836 35.964575 0.004
GW 278 68 -3.75 -7.4926 36.339206 -3.75 93.6836 36.339206 0.004
GW 279 68 -3.75 -7.4926 36.713837 -3.75 93.6836 36.713837 0.004
GW 280 68 -3.75 -7.4926 37.088469 -3.75 93.6836 37.088469 0.004
GW 281 68 -3.75 -7.4926 37.4631 -3.75 93.6836 37.4631 0.004
GW 282 68 -3.75 -7.4926 37.837731 -3.75 93.6836 37.837731 0.004
GW 283 68 -3.75 -7.4926 38.212362 -3.75 93.6836 38.212362 0.004
GW 284 68 -3.75 -7.4926 38.586994 -3.75 93.6836 38.586994 0.004
GW 285 68 -3.75 -7.4926 38.961625 -3.75 93.6836 38.961625 0.004
GW 286 68 -3.75 -7.4926 39.336256 -3.75 93.6836 39.336256 0.004
GW 287 68 -3.75 -7.4926 39.710887 -3.75 93.6836 39.710887 0.004
GW 288 68 -3.75 -7.4926 40.085519 -3.75 93.6836 40.085519 0.004
GW 289 68 -3.75 -7.4926 40.46015 -3.75 93.6836 40.46015 0.004
GW 290 68 -3.75 -7.4926 40.834781 -3.75 93.6836 40.834781 0.004
GW 291 68 -3.75 -7.4926 41.209412 -3.75 93.6836 41.209412 0.004
GW 292 68 -3.75 -7.4926 41.584044 -3.75 93.6836 41.584044 0.004
GW 293 68 -3.75 -7.4926 41.958675 -3.75 93.6836 41.958675 0.004
GW 294 68 -3.75 -7.4926 42.333306 -3.75 93.6836 42.333306 0.004
GW 295 68 -3.75 -7.4926 42.707937 -3.75 93.6836 42.707937 0.004
GW 296 68 -3.75 -7.4926 43.082569 -3.75 93.6836 43.082569 0.004
GW 297 68 -3.75 -7.4926 43.4572 -3.75 93.6836 43.4572 0.004
GW 298 68 -3.75 -7.4926 43.831831 -3.75 93.6836 43.831831 0.004
GW 299 68 -3.75 -7.4926 44.206463 -3.75 93.6836 44.206463 0.004
GW 300 68 -3.75 -7.4926 44.581094 -3.75 93.6836 44.581094 0.004
GW 401 99 -3.75 -7.4926 44.581094 -3.75 -7.4926 7.4926 0.004
GW 801 7 -3.75 -7.4926 7.4926 -3.75 -7.4926 0 0.004
GW 402 99 -3.75 43.0955 44.581094 -3.75 43.0955 7.4926 0.004
GW 802 7 -3.75 43.0955 7.4926 -3.75 43.0955 0 0.004
GW 403 99 -3.75 93.6836 44.581094 -3.75 93.6836 7.4926 0.004
GW 803 7 -3.75 93.6836 7.4926 -3.75 93.6836 0 0.004
GE 1
EK
TL 101 5 102 5 -50 18
TL 101 5 103 5 -50 18
TL 101 5 104 5 -50 18
TL 101 5 105 5 -50 18
TL 101 5 106 5 -50 18
TL 101 5 107 5 -50 18
TL 101 5 108 5 -50 18
TL 101 5 109 5 -50 18
TL 101 5 110 5 -50 18
TL 101 5 111 5 -50 18
TL 101 5 112 5 -50 18
TL 101 5 113 5 -50 18
TL 101 5 114 5 -50 18
TL 101 5 115 5 -50 18
TL 101 5 116 5 -50 18
TL 101 5 117 5 -50 18
TL 101 5 118 5 -50 18
TL 101 5 119 5 -50 18
TL 101 5 120 5 -50 18
TL 101 5 121 5 -50 18
TL 101 5 122 5 -50 18
TL 101 5 123 5 -50 18
TL 101 5 124 5 -50 18
TL 101 5 125 5 -50 18
TL 101 5 126 5 -50 18
TL 101 5 127 5 -50 18
TL 101 5 128 5 -50 18
TL 101 5 129 5 -50 18
TL 101 5 130 5 -50 18
TL 101 5 131 5 -50 18
TL 101 5 132 5 -50 18
LD 5 0 0 0 3.8E7 0
EX 0 101 5 0 1 0
GN 2 0 0 0 13 0.005
FR 0 1 0 0 20.0 0
RP 0 91 360 1001 0. 0. 1. 1.
