CM Curtain Antenna with Aperiodic Screen Reflector ([201] Centre-fed at 13.0 MHz - Aperiodic Screen Reflector) -- AHRS-4-1-0.5
CM - - - created by 'The I.T.S. S.A.G. ver 0.80' on Mon Sep 23 09:37:25 2013
CM  - Wires 101-199 = Array Elements
CM  - Wires 201-399 = Horizontal Screen Elements
CM  - Wires 401-499 = Vertical Screen Elements
CM  - Wires 801-899 = 'Legs' for Vertical Screen Elements
CE
GW 101 9 0.0 0.0 11.527115 0.0 11.527115 11.527115 0.004
GW 102 9 0.0 17.290673 11.527115 0.0 28.817788 11.527115 0.004
GW 103 9 0.0 34.581346 11.527115 0.0 46.108462 11.527115 0.004
GW 104 9 0.0 51.872019 11.527115 0.0 63.399135 11.527115 0.004
GW 201 38 -5.76 -11.5271 2.3054 -5.76 74.9156 2.3054 0.004
GW 202 38 -5.76 -11.5271 2.881756 -5.76 74.9156 2.881756 0.004
GW 203 38 -5.76 -11.5271 3.458112 -5.76 74.9156 3.458112 0.004
GW 204 38 -5.76 -11.5271 4.034467 -5.76 74.9156 4.034467 0.004
GW 205 38 -5.76 -11.5271 4.610823 -5.76 74.9156 4.610823 0.004
GW 206 38 -5.76 -11.5271 5.187179 -5.76 74.9156 5.187179 0.004
GW 207 38 -5.76 -11.5271 5.763535 -5.76 74.9156 5.763535 0.004
GW 208 38 -5.76 -11.5271 6.33989 -5.76 74.9156 6.33989 0.004
GW 209 38 -5.76 -11.5271 6.916246 -5.76 74.9156 6.916246 0.004
GW 210 38 -5.76 -11.5271 7.492602 -5.76 74.9156 7.492602 0.004
GW 211 38 -5.76 -11.5271 8.068958 -5.76 74.9156 8.068958 0.004
GW 212 38 -5.76 -11.5271 8.645313 -5.76 74.9156 8.645313 0.004
GW 213 38 -5.76 -11.5271 9.221669 -5.76 74.9156 9.221669 0.004
GW 214 38 -5.76 -11.5271 9.798025 -5.76 74.9156 9.798025 0.004
GW 215 38 -5.76 -11.5271 10.374381 -5.76 74.9156 10.374381 0.004
GW 216 38 -5.76 -11.5271 10.950737 -5.76 74.9156 10.950737 0.004
GW 217 38 -5.76 -11.5271 11.527092 -5.76 74.9156 11.527092 0.004
GW 218 38 -5.76 -11.5271 12.103448 -5.76 74.9156 12.103448 0.004
GW 219 38 -5.76 -11.5271 12.679804 -5.76 74.9156 12.679804 0.004
GW 220 38 -5.76 -11.5271 13.25616 -5.76 74.9156 13.25616 0.004
GW 221 38 -5.76 -11.5271 13.832515 -5.76 74.9156 13.832515 0.004
GW 222 38 -5.76 -11.5271 14.408871 -5.76 74.9156 14.408871 0.004
GW 223 38 -5.76 -11.5271 14.985227 -5.76 74.9156 14.985227 0.004
GW 224 38 -5.76 -11.5271 15.561583 -5.76 74.9156 15.561583 0.004
GW 225 38 -5.76 -11.5271 16.137938 -5.76 74.9156 16.137938 0.004
GW 226 38 -5.76 -11.5271 16.714294 -5.76 74.9156 16.714294 0.004
GW 227 38 -5.76 -11.5271 17.29065 -5.76 74.9156 17.29065 0.004
GW 228 38 -5.76 -11.5271 17.867006 -5.76 74.9156 17.867006 0.004
GW 229 38 -5.76 -11.5271 18.443362 -5.76 74.9156 18.443362 0.004
GW 230 38 -5.76 -11.5271 19.019717 -5.76 74.9156 19.019717 0.004
GW 231 38 -5.76 -11.5271 19.596073 -5.76 74.9156 19.596073 0.004
GW 232 38 -5.76 -11.5271 20.172429 -5.76 74.9156 20.172429 0.004
GW 233 38 -5.76 -11.5271 20.748785 -5.76 74.9156 20.748785 0.004
GW 234 38 -5.76 -11.5271 21.32514 -5.76 74.9156 21.32514 0.004
GW 235 38 -5.76 -11.5271 21.901496 -5.76 74.9156 21.901496 0.004
GW 236 38 -5.76 -11.5271 22.477852 -5.76 74.9156 22.477852 0.004
GW 237 38 -5.76 -11.5271 23.054208 -5.76 74.9156 23.054208 0.004
GW 238 38 -5.76 -11.5271 23.630563 -5.76 74.9156 23.630563 0.004
GW 239 38 -5.76 -11.5271 24.206919 -5.76 74.9156 24.206919 0.004
GW 240 38 -5.76 -11.5271 24.783275 -5.76 74.9156 24.783275 0.004
GW 401 39 -5.76 -11.5271 24.783275 -5.76 -11.5271 2.3054 0.004
GW 801 1 -5.76 -11.5271 2.3054 -5.76 -11.5271 0 0.004
GW 402 39 -5.76 31.69425 24.783275 -5.76 31.69425 2.3054 0.004
GW 802 1 -5.76 31.69425 2.3054 -5.76 31.69425 0 0.004
GW 403 39 -5.76 74.9156 24.783275 -5.76 74.9156 2.3054 0.004
GW 803 1 -5.76 74.9156 2.3054 -5.76 74.9156 0 0.004
GE 1
EK
TL 101 5 102 5 -50 9
TL 101 5 103 5 -50 9
TL 101 5 104 5 -50 9
LD 5 0 0 0 3.8E7 0
EX 0 101 5 0 1 0
GN 2 0 0 0 13 0.005
FR 0 1 0 0 13.0 0
RP 0 91 360 1001 0. 0. 1. 1.
