CM Curtain Antenna with Aperiodic Screen Reflector ([158] Centre-fed at 25.0 MHz - Aperiodic Screen Reflector) -- AHRS-2-4-1.0
CM - - - created by 'The I.T.S. S.A.G. ver 0.80' on Mon Sep 23 09:37:25 2013
CM  - Wires 101-199 = Array Elements
CM  - Wires 201-399 = Horizontal Screen Elements
CM  - Wires 401-499 = Vertical Screen Elements
CM  - Wires 801-899 = 'Legs' for Vertical Screen Elements
CE
GW 101 9 0.0 0.0 11.9882 0.0 5.9941 11.9882 0.004
GW 102 9 0.0 8.99115 11.9882 0.0 14.98525 11.9882 0.004
GW 103 9 0.0 0.0 17.9823 0.0 5.9941 17.9823 0.004
GW 104 9 0.0 8.99115 17.9823 0.0 14.98525 17.9823 0.004
GW 105 9 0.0 0.0 23.9764 0.0 5.9941 23.9764 0.004
GW 106 9 0.0 8.99115 23.9764 0.0 14.98525 23.9764 0.004
GW 107 9 0.0 0.0 29.9705 0.0 5.9941 29.9705 0.004
GW 108 9 0.0 8.99115 29.9705 0.0 14.98525 29.9705 0.004
GW 201 24 -3.0 -5.9941 5.9941 -3.0 20.9823 5.9941 0.004
GW 202 24 -3.0 -5.9941 6.293805 -3.0 20.9823 6.293805 0.004
GW 203 24 -3.0 -5.9941 6.59351 -3.0 20.9823 6.59351 0.004
GW 204 24 -3.0 -5.9941 6.893215 -3.0 20.9823 6.893215 0.004
GW 205 24 -3.0 -5.9941 7.19292 -3.0 20.9823 7.19292 0.004
GW 206 24 -3.0 -5.9941 7.492625 -3.0 20.9823 7.492625 0.004
GW 207 24 -3.0 -5.9941 7.79233 -3.0 20.9823 7.79233 0.004
GW 208 24 -3.0 -5.9941 8.092035 -3.0 20.9823 8.092035 0.004
GW 209 24 -3.0 -5.9941 8.39174 -3.0 20.9823 8.39174 0.004
GW 210 24 -3.0 -5.9941 8.691445 -3.0 20.9823 8.691445 0.004
GW 211 24 -3.0 -5.9941 8.99115 -3.0 20.9823 8.99115 0.004
GW 212 24 -3.0 -5.9941 9.290855 -3.0 20.9823 9.290855 0.004
GW 213 24 -3.0 -5.9941 9.59056 -3.0 20.9823 9.59056 0.004
GW 214 24 -3.0 -5.9941 9.890265 -3.0 20.9823 9.890265 0.004
GW 215 24 -3.0 -5.9941 10.18997 -3.0 20.9823 10.18997 0.004
GW 216 24 -3.0 -5.9941 10.489675 -3.0 20.9823 10.489675 0.004
GW 217 24 -3.0 -5.9941 10.78938 -3.0 20.9823 10.78938 0.004
GW 218 24 -3.0 -5.9941 11.089085 -3.0 20.9823 11.089085 0.004
GW 219 24 -3.0 -5.9941 11.38879 -3.0 20.9823 11.38879 0.004
GW 220 24 -3.0 -5.9941 11.688495 -3.0 20.9823 11.688495 0.004
GW 221 24 -3.0 -5.9941 11.9882 -3.0 20.9823 11.9882 0.004
GW 222 24 -3.0 -5.9941 12.287905 -3.0 20.9823 12.287905 0.004
GW 223 24 -3.0 -5.9941 12.58761 -3.0 20.9823 12.58761 0.004
GW 224 24 -3.0 -5.9941 12.887315 -3.0 20.9823 12.887315 0.004
GW 225 24 -3.0 -5.9941 13.18702 -3.0 20.9823 13.18702 0.004
GW 226 24 -3.0 -5.9941 13.486725 -3.0 20.9823 13.486725 0.004
GW 227 24 -3.0 -5.9941 13.78643 -3.0 20.9823 13.78643 0.004
GW 228 24 -3.0 -5.9941 14.086135 -3.0 20.9823 14.086135 0.004
GW 229 24 -3.0 -5.9941 14.38584 -3.0 20.9823 14.38584 0.004
GW 230 24 -3.0 -5.9941 14.685545 -3.0 20.9823 14.685545 0.004
GW 231 24 -3.0 -5.9941 14.98525 -3.0 20.9823 14.98525 0.004
GW 232 24 -3.0 -5.9941 15.284955 -3.0 20.9823 15.284955 0.004
GW 233 24 -3.0 -5.9941 15.58466 -3.0 20.9823 15.58466 0.004
GW 234 24 -3.0 -5.9941 15.884365 -3.0 20.9823 15.884365 0.004
GW 235 24 -3.0 -5.9941 16.18407 -3.0 20.9823 16.18407 0.004
GW 236 24 -3.0 -5.9941 16.483775 -3.0 20.9823 16.483775 0.004
GW 237 24 -3.0 -5.9941 16.78348 -3.0 20.9823 16.78348 0.004
GW 238 24 -3.0 -5.9941 17.083185 -3.0 20.9823 17.083185 0.004
GW 239 24 -3.0 -5.9941 17.38289 -3.0 20.9823 17.38289 0.004
GW 240 24 -3.0 -5.9941 17.682595 -3.0 20.9823 17.682595 0.004
GW 241 24 -3.0 -5.9941 17.9823 -3.0 20.9823 17.9823 0.004
GW 242 24 -3.0 -5.9941 18.282005 -3.0 20.9823 18.282005 0.004
GW 243 24 -3.0 -5.9941 18.58171 -3.0 20.9823 18.58171 0.004
GW 244 24 -3.0 -5.9941 18.881415 -3.0 20.9823 18.881415 0.004
GW 245 24 -3.0 -5.9941 19.18112 -3.0 20.9823 19.18112 0.004
GW 246 24 -3.0 -5.9941 19.480825 -3.0 20.9823 19.480825 0.004
GW 247 24 -3.0 -5.9941 19.78053 -3.0 20.9823 19.78053 0.004
GW 248 24 -3.0 -5.9941 20.080235 -3.0 20.9823 20.080235 0.004
GW 249 24 -3.0 -5.9941 20.37994 -3.0 20.9823 20.37994 0.004
GW 250 24 -3.0 -5.9941 20.679645 -3.0 20.9823 20.679645 0.004
GW 251 24 -3.0 -5.9941 20.97935 -3.0 20.9823 20.97935 0.004
GW 252 24 -3.0 -5.9941 21.279055 -3.0 20.9823 21.279055 0.004
GW 253 24 -3.0 -5.9941 21.57876 -3.0 20.9823 21.57876 0.004
GW 254 24 -3.0 -5.9941 21.878465 -3.0 20.9823 21.878465 0.004
GW 255 24 -3.0 -5.9941 22.17817 -3.0 20.9823 22.17817 0.004
GW 256 24 -3.0 -5.9941 22.477875 -3.0 20.9823 22.477875 0.004
GW 257 24 -3.0 -5.9941 22.77758 -3.0 20.9823 22.77758 0.004
GW 258 24 -3.0 -5.9941 23.077285 -3.0 20.9823 23.077285 0.004
GW 259 24 -3.0 -5.9941 23.37699 -3.0 20.9823 23.37699 0.004
GW 260 24 -3.0 -5.9941 23.676695 -3.0 20.9823 23.676695 0.004
GW 261 24 -3.0 -5.9941 23.9764 -3.0 20.9823 23.9764 0.004
GW 262 24 -3.0 -5.9941 24.276105 -3.0 20.9823 24.276105 0.004
GW 263 24 -3.0 -5.9941 24.57581 -3.0 20.9823 24.57581 0.004
GW 264 24 -3.0 -5.9941 24.875515 -3.0 20.9823 24.875515 0.004
GW 265 24 -3.0 -5.9941 25.17522 -3.0 20.9823 25.17522 0.004
GW 266 24 -3.0 -5.9941 25.474925 -3.0 20.9823 25.474925 0.004
GW 267 24 -3.0 -5.9941 25.77463 -3.0 20.9823 25.77463 0.004
GW 268 24 -3.0 -5.9941 26.074335 -3.0 20.9823 26.074335 0.004
GW 269 24 -3.0 -5.9941 26.37404 -3.0 20.9823 26.37404 0.004
GW 270 24 -3.0 -5.9941 26.673745 -3.0 20.9823 26.673745 0.004
GW 271 24 -3.0 -5.9941 26.97345 -3.0 20.9823 26.97345 0.004
GW 272 24 -3.0 -5.9941 27.273155 -3.0 20.9823 27.273155 0.004
GW 273 24 -3.0 -5.9941 27.57286 -3.0 20.9823 27.57286 0.004
GW 274 24 -3.0 -5.9941 27.872565 -3.0 20.9823 27.872565 0.004
GW 275 24 -3.0 -5.9941 28.17227 -3.0 20.9823 28.17227 0.004
GW 276 24 -3.0 -5.9941 28.471975 -3.0 20.9823 28.471975 0.004
GW 277 24 -3.0 -5.9941 28.77168 -3.0 20.9823 28.77168 0.004
GW 278 24 -3.0 -5.9941 29.071385 -3.0 20.9823 29.071385 0.004
GW 279 24 -3.0 -5.9941 29.37109 -3.0 20.9823 29.37109 0.004
GW 280 24 -3.0 -5.9941 29.670795 -3.0 20.9823 29.670795 0.004
GW 281 24 -3.0 -5.9941 29.9705 -3.0 20.9823 29.9705 0.004
GW 282 24 -3.0 -5.9941 30.270205 -3.0 20.9823 30.270205 0.004
GW 283 24 -3.0 -5.9941 30.56991 -3.0 20.9823 30.56991 0.004
GW 284 24 -3.0 -5.9941 30.869615 -3.0 20.9823 30.869615 0.004
GW 285 24 -3.0 -5.9941 31.16932 -3.0 20.9823 31.16932 0.004
GW 286 24 -3.0 -5.9941 31.469025 -3.0 20.9823 31.469025 0.004
GW 287 24 -3.0 -5.9941 31.76873 -3.0 20.9823 31.76873 0.004
GW 288 24 -3.0 -5.9941 32.068435 -3.0 20.9823 32.068435 0.004
GW 289 24 -3.0 -5.9941 32.36814 -3.0 20.9823 32.36814 0.004
GW 290 24 -3.0 -5.9941 32.667845 -3.0 20.9823 32.667845 0.004
GW 291 24 -3.0 -5.9941 32.96755 -3.0 20.9823 32.96755 0.004
GW 292 24 -3.0 -5.9941 33.267255 -3.0 20.9823 33.267255 0.004
GW 293 24 -3.0 -5.9941 33.56696 -3.0 20.9823 33.56696 0.004
GW 294 24 -3.0 -5.9941 33.866665 -3.0 20.9823 33.866665 0.004
GW 295 24 -3.0 -5.9941 34.16637 -3.0 20.9823 34.16637 0.004
GW 296 24 -3.0 -5.9941 34.466075 -3.0 20.9823 34.466075 0.004
GW 297 24 -3.0 -5.9941 34.76578 -3.0 20.9823 34.76578 0.004
GW 298 24 -3.0 -5.9941 35.065485 -3.0 20.9823 35.065485 0.004
GW 299 24 -3.0 -5.9941 35.36519 -3.0 20.9823 35.36519 0.004
GW 300 24 -3.0 -5.9941 35.664895 -3.0 20.9823 35.664895 0.004
GW 401 99 -3.0 -5.9941 35.664895 -3.0 -5.9941 5.9941 0.004
GW 801 8 -3.0 -5.9941 5.9941 -3.0 -5.9941 0 0.004
GW 402 99 -3.0 7.4941 35.664895 -3.0 7.4941 5.9941 0.004
GW 802 8 -3.0 7.4941 5.9941 -3.0 7.4941 0 0.004
GW 403 99 -3.0 20.9823 35.664895 -3.0 20.9823 5.9941 0.004
GW 803 8 -3.0 20.9823 5.9941 -3.0 20.9823 0 0.004
GE 1
EK
TL 101 5 102 5 -50 9
TL 101 5 103 5 -50 9
TL 101 5 104 5 -50 9
TL 101 5 105 5 -50 9
TL 101 5 106 5 -50 9
TL 101 5 107 5 -50 9
TL 101 5 108 5 -50 9
LD 5 0 0 0 3.8E7 0
EX 0 101 5 0 1 0
GN 2 0 0 0 13 0.005
FR 0 1 0 0 25.0 0
RP 0 91 360 1001 0. 0. 1. 1.
