CM Curtain Antenna with Tuned Dipole Reflector ([386] Centre-fed at 29.0 MHz - Tuned Dipole Reflector) -- CHRS-3-2-0.5
CM - - - created by 'The I.T.S. S.A.G. ver 0.80' on Mon Sep 23 09:37:25 2013
CM  - Wires 101-199 = Array Elements
CM  - Wires 501-599 = Tuned Array Elements
CE
GW 101 9 0.0 0.0 5.167328 0.0 5.167328 5.167328 0.004
GW 102 9 0.0 7.750991 5.167328 0.0 12.918319 5.167328 0.004
GW 103 9 0.0 15.501983 5.167328 0.0 20.66931 5.167328 0.004
GW 104 9 0.0 0.0 10.334655 0.0 5.167328 10.334655 0.004
GW 105 9 0.0 7.750991 10.334655 0.0 12.918319 10.334655 0.004
GW 106 9 0.0 15.501983 10.334655 0.0 20.66931 10.334655 0.004
GW 501 9 -2.58 0.0 5.167328 -2.58 5.167328 5.167328 0.004
GW 502 9 -2.58 7.747328 5.167328 -2.58 12.914655 5.167328 0.004
GW 503 9 -2.58 15.494655 5.167328 -2.58 20.661983 5.167328 0.004
GW 504 9 -2.58 0.0 10.337328 -2.58 5.167328 10.337328 0.004
GW 505 9 -2.58 7.747328 10.337328 -2.58 12.914655 10.337328 0.004
GW 506 9 -2.58 15.494655 10.337328 -2.58 20.661983 10.337328 0.004
GE 1
EK
TL 501 9 505 1 -50
TL 502 1 504 9 -50
TL 101 5 102 5 -50 8
TL 101 5 103 5 -50 8
TL 101 5 104 5 -50 8
TL 101 5 105 5 -50 8
TL 101 5 106 5 -50 8
LD 5 0 0 0 3.8E7 0
EX 0 101 5 0 1 0
GN 2 0 0 0 13 0.005
FR 0 1 0 0 29.0 0
RP 0 91 360 1001 0. 0. 1. 1.
