CM Curtain Antenna with Tuned Dipole Reflector ([386] Centre-fed at 4.0 MHz - Tuned Dipole Reflector) -- CHRS-3-2-0.5
CM - - - created by 'The I.T.S. S.A.G. ver 0.80' on Mon Sep 23 09:37:25 2013
CM  - Wires 101-199 = Array Elements
CM  - Wires 501-599 = Tuned Array Elements
CE
GW 101 9 0.0 0.0 37.463125 0.0 37.463125 37.463125 0.004
GW 102 9 0.0 56.194688 37.463125 0.0 93.657812 37.463125 0.004
GW 103 9 0.0 112.389375 37.463125 0.0 149.8525 37.463125 0.004
GW 104 9 0.0 0.0 74.92625 0.0 37.463125 74.92625 0.004
GW 105 9 0.0 56.194688 74.92625 0.0 93.657812 74.92625 0.004
GW 106 9 0.0 112.389375 74.92625 0.0 149.8525 74.92625 0.004
GW 501 9 -18.73 0.0 37.463125 -18.73 37.463125 37.463125 0.004
GW 502 9 -18.73 56.193125 37.463125 -18.73 93.65625 37.463125 0.004
GW 503 9 -18.73 112.38625 37.463125 -18.73 149.849375 37.463125 0.004
GW 504 9 -18.73 0.0 74.923125 -18.73 37.463125 74.923125 0.004
GW 505 9 -18.73 56.193125 74.923125 -18.73 93.65625 74.923125 0.004
GW 506 9 -18.73 112.38625 74.923125 -18.73 149.849375 74.923125 0.004
GE 1
EK
TL 501 9 505 1 -50
TL 502 1 504 9 -50
TL 101 5 102 5 -50 8
TL 101 5 103 5 -50 8
TL 101 5 104 5 -50 8
TL 101 5 105 5 -50 8
TL 101 5 106 5 -50 8
LD 5 0 0 0 3.8E7 0
EX 0 101 5 0 1 0
GN 2 0 0 0 13 0.005
FR 0 1 0 0 4.0 0
RP 0 91 360 1001 0. 0. 1. 1.
