CM Curtain Antenna with Tuned Dipole Reflector ([386] Centre-fed at 23.0 MHz - Tuned Dipole Reflector) -- CHRS-3-2-0.5
CM - - - created by 'The I.T.S. S.A.G. ver 0.80' on Mon Sep 23 09:37:25 2013
CM  - Wires 101-199 = Array Elements
CM  - Wires 501-599 = Tuned Array Elements
CE
GW 101 9 0.0 0.0 6.515326 0.0 6.515326 6.515326 0.004
GW 102 9 0.0 9.772989 6.515326 0.0 16.288315 6.515326 0.004
GW 103 9 0.0 19.545978 6.515326 0.0 26.061304 6.515326 0.004
GW 104 9 0.0 0.0 13.030652 0.0 6.515326 13.030652 0.004
GW 105 9 0.0 9.772989 13.030652 0.0 16.288315 13.030652 0.004
GW 106 9 0.0 19.545978 13.030652 0.0 26.061304 13.030652 0.004
GW 501 9 -3.26 0.0 6.515326 -3.26 6.515326 6.515326 0.004
GW 502 9 -3.26 9.775326 6.515326 -3.26 16.290652 6.515326 0.004
GW 503 9 -3.26 19.550652 6.515326 -3.26 26.065978 6.515326 0.004
GW 504 9 -3.26 0.0 13.035326 -3.26 6.515326 13.035326 0.004
GW 505 9 -3.26 9.775326 13.035326 -3.26 16.290652 13.035326 0.004
GW 506 9 -3.26 19.550652 13.035326 -3.26 26.065978 13.035326 0.004
GE 1
EK
TL 501 9 505 1 -50
TL 502 1 504 9 -50
TL 101 5 102 5 -50 8
TL 101 5 103 5 -50 8
TL 101 5 104 5 -50 8
TL 101 5 105 5 -50 8
TL 101 5 106 5 -50 8
LD 5 0 0 0 3.8E7 0
EX 0 101 5 0 1 0
GN 2 0 0 0 13 0.005
FR 0 1 0 0 23.0 0
RP 0 91 360 1001 0. 0. 1. 1.
