CM Curtain Antenna with Tuned Dipole Reflector ([386] Centre-fed at 11.0 MHz - Tuned Dipole Reflector) -- CHRS-3-2-0.5
CM - - - created by 'The I.T.S. S.A.G. ver 0.80' on Mon Sep 23 09:37:25 2013
CM  - Wires 101-199 = Array Elements
CM  - Wires 501-599 = Tuned Array Elements
CE
GW 101 9 0.0 0.0 13.622955 0.0 13.622955 13.622955 0.004
GW 102 9 0.0 20.434432 13.622955 0.0 34.057386 13.622955 0.004
GW 103 9 0.0 40.868864 13.622955 0.0 54.491818 13.622955 0.004
GW 104 9 0.0 0.0 27.245909 0.0 13.622955 27.245909 0.004
GW 105 9 0.0 20.434432 27.245909 0.0 34.057386 27.245909 0.004
GW 106 9 0.0 40.868864 27.245909 0.0 54.491818 27.245909 0.004
GW 501 9 -6.81 0.0 13.622955 -6.81 13.622955 13.622955 0.004
GW 502 9 -6.81 20.432955 13.622955 -6.81 34.055909 13.622955 0.004
GW 503 9 -6.81 40.865909 13.622955 -6.81 54.488864 13.622955 0.004
GW 504 9 -6.81 0.0 27.242955 -6.81 13.622955 27.242955 0.004
GW 505 9 -6.81 20.432955 27.242955 -6.81 34.055909 27.242955 0.004
GW 506 9 -6.81 40.865909 27.242955 -6.81 54.488864 27.242955 0.004
GE 1
EK
TL 501 9 505 1 -50
TL 502 1 504 9 -50
TL 101 5 102 5 -50 8
TL 101 5 103 5 -50 8
TL 101 5 104 5 -50 8
TL 101 5 105 5 -50 8
TL 101 5 106 5 -50 8
LD 5 0 0 0 3.8E7 0
EX 0 101 5 0 1 0
GN 2 0 0 0 13 0.005
FR 0 1 0 0 11.0 0
RP 0 91 360 1001 0. 0. 1. 1.
