CM Curtain Antenna with Tuned Dipole Reflector ([386] Centre-fed at 13.0 MHz - Tuned Dipole Reflector) -- CHRS-3-2-0.5
CM - - - created by 'The I.T.S. S.A.G. ver 0.80' on Mon Sep 23 09:37:25 2013
CM  - Wires 101-199 = Array Elements
CM  - Wires 501-599 = Tuned Array Elements
CE
GW 101 9 0.0 0.0 11.527115 0.0 11.527115 11.527115 0.004
GW 102 9 0.0 17.290673 11.527115 0.0 28.817788 11.527115 0.004
GW 103 9 0.0 34.581346 11.527115 0.0 46.108462 11.527115 0.004
GW 104 9 0.0 0.0 23.054231 0.0 11.527115 23.054231 0.004
GW 105 9 0.0 17.290673 23.054231 0.0 28.817788 23.054231 0.004
GW 106 9 0.0 34.581346 23.054231 0.0 46.108462 23.054231 0.004
GW 501 9 -5.76 0.0 11.527115 -5.76 11.527115 11.527115 0.004
GW 502 9 -5.76 17.287115 11.527115 -5.76 28.814231 11.527115 0.004
GW 503 9 -5.76 34.574231 11.527115 -5.76 46.101346 11.527115 0.004
GW 504 9 -5.76 0.0 23.057115 -5.76 11.527115 23.057115 0.004
GW 505 9 -5.76 17.287115 23.057115 -5.76 28.814231 23.057115 0.004
GW 506 9 -5.76 34.574231 23.057115 -5.76 46.101346 23.057115 0.004
GE 1
EK
TL 501 9 505 1 -50
TL 502 1 504 9 -50
TL 101 5 102 5 -50 8
TL 101 5 103 5 -50 8
TL 101 5 104 5 -50 8
TL 101 5 105 5 -50 8
TL 101 5 106 5 -50 8
LD 5 0 0 0 3.8E7 0
EX 0 101 5 0 1 0
GN 2 0 0 0 13 0.005
FR 0 1 0 0 13.0 0
RP 0 91 360 1001 0. 0. 1. 1.
