CM Curtain Antenna with Tuned Dipole Reflector ([411] Centre-fed at 29.0 MHz - Tuned Dipole Reflector) -- CHRS-4-3-0.5
CM - - - created by 'The I.T.S. S.A.G. ver 0.80' on Mon Sep 23 09:37:25 2013
CM  - Wires 101-199 = Array Elements
CM  - Wires 501-599 = Tuned Array Elements
CE
GW 101 9 0.0 0.0 5.167328 0.0 5.167328 5.167328 0.004
GW 102 9 0.0 7.750991 5.167328 0.0 12.918319 5.167328 0.004
GW 103 9 0.0 15.501983 5.167328 0.0 20.66931 5.167328 0.004
GW 104 9 0.0 23.252974 5.167328 0.0 28.420302 5.167328 0.004
GW 105 9 0.0 0.0 10.334655 0.0 5.167328 10.334655 0.004
GW 106 9 0.0 7.750991 10.334655 0.0 12.918319 10.334655 0.004
GW 107 9 0.0 15.501983 10.334655 0.0 20.66931 10.334655 0.004
GW 108 9 0.0 23.252974 10.334655 0.0 28.420302 10.334655 0.004
GW 109 9 0.0 0.0 15.501983 0.0 5.167328 15.501983 0.004
GW 110 9 0.0 7.750991 15.501983 0.0 12.918319 15.501983 0.004
GW 111 9 0.0 15.501983 15.501983 0.0 20.66931 15.501983 0.004
GW 112 9 0.0 23.252974 15.501983 0.0 28.420302 15.501983 0.004
GW 501 9 -2.58 0.0 5.167328 -2.58 5.167328 5.167328 0.004
GW 502 9 -2.58 7.747328 5.167328 -2.58 12.914655 5.167328 0.004
GW 503 9 -2.58 15.494655 5.167328 -2.58 20.661983 5.167328 0.004
GW 504 9 -2.58 23.241983 5.167328 -2.58 28.40931 5.167328 0.004
GW 505 9 -2.58 0.0 10.337328 -2.58 5.167328 10.337328 0.004
GW 506 9 -2.58 7.747328 10.337328 -2.58 12.914655 10.337328 0.004
GW 507 9 -2.58 15.494655 10.337328 -2.58 20.661983 10.337328 0.004
GW 508 9 -2.58 23.241983 10.337328 -2.58 28.40931 10.337328 0.004
GW 509 9 -2.58 0.0 15.507328 -2.58 5.167328 15.507328 0.004
GW 510 9 -2.58 7.747328 15.507328 -2.58 12.914655 15.507328 0.004
GW 511 9 -2.58 15.494655 15.507328 -2.58 20.661983 15.507328 0.004
GW 512 9 -2.58 23.241983 15.507328 -2.58 28.40931 15.507328 0.004
GE 1
EK
TL 501 9 506 1 -50
TL 502 1 505 9 -50
TL 503 9 508 1 -50
TL 504 1 507 9 -50
TL 505 9 510 1 -50
TL 506 1 509 9 -50
TL 507 9 512 1 -50
TL 508 1 511 9 -50
TL 101 5 102 5 -50 11
TL 101 5 103 5 -50 11
TL 101 5 104 5 -50 11
TL 101 5 105 5 -50 11
TL 101 5 106 5 -50 11
TL 101 5 107 5 -50 11
TL 101 5 108 5 -50 11
TL 101 5 109 5 -50 11
TL 101 5 110 5 -50 11
TL 101 5 111 5 -50 11
TL 101 5 112 5 -50 11
LD 5 0 0 0 3.8E7 0
EX 0 101 5 0 1 0
GN 2 0 0 0 13 0.005
FR 0 1 0 0 29.0 0
RP 0 91 360 1001 0. 0. 1. 1.
