CM Curtain Antenna with Tuned Dipole Reflector ([386] Centre-fed at 17.0 MHz - Tuned Dipole Reflector) -- CHRS-3-2-0.5
CM - - - created by 'The I.T.S. S.A.G. ver 0.80' on Mon Sep 23 09:37:25 2013
CM  - Wires 101-199 = Array Elements
CM  - Wires 501-599 = Tuned Array Elements
CE
GW 101 9 0.0 0.0 8.814853 0.0 8.814853 8.814853 0.004
GW 102 9 0.0 13.222279 8.814853 0.0 22.037132 8.814853 0.004
GW 103 9 0.0 26.444559 8.814853 0.0 35.259412 8.814853 0.004
GW 104 9 0.0 0.0 17.629706 0.0 8.814853 17.629706 0.004
GW 105 9 0.0 13.222279 17.629706 0.0 22.037132 17.629706 0.004
GW 106 9 0.0 26.444559 17.629706 0.0 35.259412 17.629706 0.004
GW 501 9 -4.41 0.0 8.814853 -4.41 8.814853 8.814853 0.004
GW 502 9 -4.41 13.224853 8.814853 -4.41 22.039706 8.814853 0.004
GW 503 9 -4.41 26.449706 8.814853 -4.41 35.264559 8.814853 0.004
GW 504 9 -4.41 0.0 17.624853 -4.41 8.814853 17.624853 0.004
GW 505 9 -4.41 13.224853 17.624853 -4.41 22.039706 17.624853 0.004
GW 506 9 -4.41 26.449706 17.624853 -4.41 35.264559 17.624853 0.004
GE 1
EK
TL 501 9 505 1 -50
TL 502 1 504 9 -50
TL 101 5 102 5 -50 8
TL 101 5 103 5 -50 8
TL 101 5 104 5 -50 8
TL 101 5 105 5 -50 8
TL 101 5 106 5 -50 8
LD 5 0 0 0 3.8E7 0
EX 0 101 5 0 1 0
GN 2 0 0 0 13 0.005
FR 0 1 0 0 17.0 0
RP 0 91 360 1001 0. 0. 1. 1.
