CM Curtain Antenna with Tuned Dipole Reflector ([411] Centre-fed at 17.0 MHz - Tuned Dipole Reflector) -- CHRS-4-3-0.5
CM - - - created by 'The I.T.S. S.A.G. ver 0.80' on Mon Sep 23 09:37:25 2013
CM  - Wires 101-199 = Array Elements
CM  - Wires 501-599 = Tuned Array Elements
CE
GW 101 9 0.0 0.0 8.814853 0.0 8.814853 8.814853 0.004
GW 102 9 0.0 13.222279 8.814853 0.0 22.037132 8.814853 0.004
GW 103 9 0.0 26.444559 8.814853 0.0 35.259412 8.814853 0.004
GW 104 9 0.0 39.666838 8.814853 0.0 48.481691 8.814853 0.004
GW 105 9 0.0 0.0 17.629706 0.0 8.814853 17.629706 0.004
GW 106 9 0.0 13.222279 17.629706 0.0 22.037132 17.629706 0.004
GW 107 9 0.0 26.444559 17.629706 0.0 35.259412 17.629706 0.004
GW 108 9 0.0 39.666838 17.629706 0.0 48.481691 17.629706 0.004
GW 109 9 0.0 0.0 26.444559 0.0 8.814853 26.444559 0.004
GW 110 9 0.0 13.222279 26.444559 0.0 22.037132 26.444559 0.004
GW 111 9 0.0 26.444559 26.444559 0.0 35.259412 26.444559 0.004
GW 112 9 0.0 39.666838 26.444559 0.0 48.481691 26.444559 0.004
GW 501 9 -4.41 0.0 8.814853 -4.41 8.814853 8.814853 0.004
GW 502 9 -4.41 13.224853 8.814853 -4.41 22.039706 8.814853 0.004
GW 503 9 -4.41 26.449706 8.814853 -4.41 35.264559 8.814853 0.004
GW 504 9 -4.41 39.674559 8.814853 -4.41 48.489412 8.814853 0.004
GW 505 9 -4.41 0.0 17.624853 -4.41 8.814853 17.624853 0.004
GW 506 9 -4.41 13.224853 17.624853 -4.41 22.039706 17.624853 0.004
GW 507 9 -4.41 26.449706 17.624853 -4.41 35.264559 17.624853 0.004
GW 508 9 -4.41 39.674559 17.624853 -4.41 48.489412 17.624853 0.004
GW 509 9 -4.41 0.0 26.434853 -4.41 8.814853 26.434853 0.004
GW 510 9 -4.41 13.224853 26.434853 -4.41 22.039706 26.434853 0.004
GW 511 9 -4.41 26.449706 26.434853 -4.41 35.264559 26.434853 0.004
GW 512 9 -4.41 39.674559 26.434853 -4.41 48.489412 26.434853 0.004
GE 1
EK
TL 501 9 506 1 -50
TL 502 1 505 9 -50
TL 503 9 508 1 -50
TL 504 1 507 9 -50
TL 505 9 510 1 -50
TL 506 1 509 9 -50
TL 507 9 512 1 -50
TL 508 1 511 9 -50
TL 101 5 102 5 -50 11
TL 101 5 103 5 -50 11
TL 101 5 104 5 -50 11
TL 101 5 105 5 -50 11
TL 101 5 106 5 -50 11
TL 101 5 107 5 -50 11
TL 101 5 108 5 -50 11
TL 101 5 109 5 -50 11
TL 101 5 110 5 -50 11
TL 101 5 111 5 -50 11
TL 101 5 112 5 -50 11
LD 5 0 0 0 3.8E7 0
EX 0 101 5 0 1 0
GN 2 0 0 0 13 0.005
FR 0 1 0 0 17.0 0
RP 0 91 360 1001 0. 0. 1. 1.
