CM Curtain Antenna with Tuned Dipole Reflector ([411] Centre-fed at 28.0 MHz - Tuned Dipole Reflector) -- CHRS-4-3-0.5
CM - - - created by 'The I.T.S. S.A.G. ver 0.80' on Mon Sep 23 09:37:25 2013
CM  - Wires 101-199 = Array Elements
CM  - Wires 501-599 = Tuned Array Elements
CE
GW 101 9 0.0 0.0 5.351875 0.0 5.351875 5.351875 0.004
GW 102 9 0.0 8.027812 5.351875 0.0 13.379687 5.351875 0.004
GW 103 9 0.0 16.055625 5.351875 0.0 21.4075 5.351875 0.004
GW 104 9 0.0 24.083437 5.351875 0.0 29.435312 5.351875 0.004
GW 105 9 0.0 0.0 10.70375 0.0 5.351875 10.70375 0.004
GW 106 9 0.0 8.027812 10.70375 0.0 13.379687 10.70375 0.004
GW 107 9 0.0 16.055625 10.70375 0.0 21.4075 10.70375 0.004
GW 108 9 0.0 24.083437 10.70375 0.0 29.435312 10.70375 0.004
GW 109 9 0.0 0.0 16.055625 0.0 5.351875 16.055625 0.004
GW 110 9 0.0 8.027812 16.055625 0.0 13.379687 16.055625 0.004
GW 111 9 0.0 16.055625 16.055625 0.0 21.4075 16.055625 0.004
GW 112 9 0.0 24.083437 16.055625 0.0 29.435312 16.055625 0.004
GW 501 9 -2.68 0.0 5.351875 -2.68 5.351875 5.351875 0.004
GW 502 9 -2.68 8.031875 5.351875 -2.68 13.38375 5.351875 0.004
GW 503 9 -2.68 16.06375 5.351875 -2.68 21.415625 5.351875 0.004
GW 504 9 -2.68 24.095625 5.351875 -2.68 29.4475 5.351875 0.004
GW 505 9 -2.68 0.0 10.701875 -2.68 5.351875 10.701875 0.004
GW 506 9 -2.68 8.031875 10.701875 -2.68 13.38375 10.701875 0.004
GW 507 9 -2.68 16.06375 10.701875 -2.68 21.415625 10.701875 0.004
GW 508 9 -2.68 24.095625 10.701875 -2.68 29.4475 10.701875 0.004
GW 509 9 -2.68 0.0 16.051875 -2.68 5.351875 16.051875 0.004
GW 510 9 -2.68 8.031875 16.051875 -2.68 13.38375 16.051875 0.004
GW 511 9 -2.68 16.06375 16.051875 -2.68 21.415625 16.051875 0.004
GW 512 9 -2.68 24.095625 16.051875 -2.68 29.4475 16.051875 0.004
GE 1
EK
TL 501 9 506 1 -50
TL 502 1 505 9 -50
TL 503 9 508 1 -50
TL 504 1 507 9 -50
TL 505 9 510 1 -50
TL 506 1 509 9 -50
TL 507 9 512 1 -50
TL 508 1 511 9 -50
TL 101 5 102 5 -50 11
TL 101 5 103 5 -50 11
TL 101 5 104 5 -50 11
TL 101 5 105 5 -50 11
TL 101 5 106 5 -50 11
TL 101 5 107 5 -50 11
TL 101 5 108 5 -50 11
TL 101 5 109 5 -50 11
TL 101 5 110 5 -50 11
TL 101 5 111 5 -50 11
TL 101 5 112 5 -50 11
LD 5 0 0 0 3.8E7 0
EX 0 101 5 0 1 0
GN 2 0 0 0 13 0.005
FR 0 1 0 0 28.0 0
RP 0 91 360 1001 0. 0. 1. 1.
