CM Curtain Antenna with Tuned Dipole Reflector ([411] Centre-fed at 30.0 MHz - Tuned Dipole Reflector) -- CHRS-4-3-0.5
CM - - - created by 'The I.T.S. S.A.G. ver 0.80' on Mon Sep 23 09:37:25 2013
CM  - Wires 101-199 = Array Elements
CM  - Wires 501-599 = Tuned Array Elements
CE
GW 101 9 0.0 0.0 4.995083 0.0 4.995083 4.995083 0.004
GW 102 9 0.0 7.492625 4.995083 0.0 12.487708 4.995083 0.004
GW 103 9 0.0 14.98525 4.995083 0.0 19.980333 4.995083 0.004
GW 104 9 0.0 22.477875 4.995083 0.0 27.472958 4.995083 0.004
GW 105 9 0.0 0.0 9.990167 0.0 4.995083 9.990167 0.004
GW 106 9 0.0 7.492625 9.990167 0.0 12.487708 9.990167 0.004
GW 107 9 0.0 14.98525 9.990167 0.0 19.980333 9.990167 0.004
GW 108 9 0.0 22.477875 9.990167 0.0 27.472958 9.990167 0.004
GW 109 9 0.0 0.0 14.98525 0.0 4.995083 14.98525 0.004
GW 110 9 0.0 7.492625 14.98525 0.0 12.487708 14.98525 0.004
GW 111 9 0.0 14.98525 14.98525 0.0 19.980333 14.98525 0.004
GW 112 9 0.0 22.477875 14.98525 0.0 27.472958 14.98525 0.004
GW 501 9 -2.5 0.0 4.995083 -2.5 4.995083 4.995083 0.004
GW 502 9 -2.5 7.495083 4.995083 -2.5 12.490167 4.995083 0.004
GW 503 9 -2.5 14.990167 4.995083 -2.5 19.98525 4.995083 0.004
GW 504 9 -2.5 22.48525 4.995083 -2.5 27.480333 4.995083 0.004
GW 505 9 -2.5 0.0 9.995083 -2.5 4.995083 9.995083 0.004
GW 506 9 -2.5 7.495083 9.995083 -2.5 12.490167 9.995083 0.004
GW 507 9 -2.5 14.990167 9.995083 -2.5 19.98525 9.995083 0.004
GW 508 9 -2.5 22.48525 9.995083 -2.5 27.480333 9.995083 0.004
GW 509 9 -2.5 0.0 14.995083 -2.5 4.995083 14.995083 0.004
GW 510 9 -2.5 7.495083 14.995083 -2.5 12.490167 14.995083 0.004
GW 511 9 -2.5 14.990167 14.995083 -2.5 19.98525 14.995083 0.004
GW 512 9 -2.5 22.48525 14.995083 -2.5 27.480333 14.995083 0.004
GE 1
EK
TL 501 9 506 1 -50
TL 502 1 505 9 -50
TL 503 9 508 1 -50
TL 504 1 507 9 -50
TL 505 9 510 1 -50
TL 506 1 509 9 -50
TL 507 9 512 1 -50
TL 508 1 511 9 -50
TL 101 5 102 5 -50 11
TL 101 5 103 5 -50 11
TL 101 5 104 5 -50 11
TL 101 5 105 5 -50 11
TL 101 5 106 5 -50 11
TL 101 5 107 5 -50 11
TL 101 5 108 5 -50 11
TL 101 5 109 5 -50 11
TL 101 5 110 5 -50 11
TL 101 5 111 5 -50 11
TL 101 5 112 5 -50 11
LD 5 0 0 0 3.8E7 0
EX 0 101 5 0 1 0
GN 2 0 0 0 13 0.005
FR 0 1 0 0 30.0 0
RP 0 91 360 1001 0. 0. 1. 1.
