CM Curtain Antenna with Tuned Dipole Reflector ([386] Centre-fed at 8.0 MHz - Tuned Dipole Reflector) -- CHRS-3-2-0.5
CM - - - created by 'The I.T.S. S.A.G. ver 0.80' on Mon Sep 23 09:37:25 2013
CM  - Wires 101-199 = Array Elements
CM  - Wires 501-599 = Tuned Array Elements
CE
GW 101 9 0.0 0.0 18.731562 0.0 18.731562 18.731562 0.004
GW 102 9 0.0 28.097344 18.731562 0.0 46.828906 18.731562 0.004
GW 103 9 0.0 56.194688 18.731562 0.0 74.92625 18.731562 0.004
GW 104 9 0.0 0.0 37.463125 0.0 18.731562 37.463125 0.004
GW 105 9 0.0 28.097344 37.463125 0.0 46.828906 37.463125 0.004
GW 106 9 0.0 56.194688 37.463125 0.0 74.92625 37.463125 0.004
GW 501 9 -9.37 0.0 18.731562 -9.37 18.731562 18.731562 0.004
GW 502 9 -9.37 28.101563 18.731562 -9.37 46.833125 18.731562 0.004
GW 503 9 -9.37 56.203125 18.731562 -9.37 74.934687 18.731562 0.004
GW 504 9 -9.37 0.0 37.461562 -9.37 18.731562 37.461562 0.004
GW 505 9 -9.37 28.101563 37.461562 -9.37 46.833125 37.461562 0.004
GW 506 9 -9.37 56.203125 37.461562 -9.37 74.934687 37.461562 0.004
GE 1
EK
TL 501 9 505 1 -50
TL 502 1 504 9 -50
TL 101 5 102 5 -50 8
TL 101 5 103 5 -50 8
TL 101 5 104 5 -50 8
TL 101 5 105 5 -50 8
TL 101 5 106 5 -50 8
LD 5 0 0 0 3.8E7 0
EX 0 101 5 0 1 0
GN 2 0 0 0 13 0.005
FR 0 1 0 0 8.0 0
RP 0 91 360 1001 0. 0. 1. 1.
