CM Curtain Antenna with Tuned Dipole Reflector ([411] Centre-fed at 13.0 MHz - Tuned Dipole Reflector) -- CHRS-4-3-0.5
CM - - - created by 'The I.T.S. S.A.G. ver 0.80' on Mon Sep 23 09:37:25 2013
CM  - Wires 101-199 = Array Elements
CM  - Wires 501-599 = Tuned Array Elements
CE
GW 101 9 0.0 0.0 11.527115 0.0 11.527115 11.527115 0.004
GW 102 9 0.0 17.290673 11.527115 0.0 28.817788 11.527115 0.004
GW 103 9 0.0 34.581346 11.527115 0.0 46.108462 11.527115 0.004
GW 104 9 0.0 51.872019 11.527115 0.0 63.399135 11.527115 0.004
GW 105 9 0.0 0.0 23.054231 0.0 11.527115 23.054231 0.004
GW 106 9 0.0 17.290673 23.054231 0.0 28.817788 23.054231 0.004
GW 107 9 0.0 34.581346 23.054231 0.0 46.108462 23.054231 0.004
GW 108 9 0.0 51.872019 23.054231 0.0 63.399135 23.054231 0.004
GW 109 9 0.0 0.0 34.581346 0.0 11.527115 34.581346 0.004
GW 110 9 0.0 17.290673 34.581346 0.0 28.817788 34.581346 0.004
GW 111 9 0.0 34.581346 34.581346 0.0 46.108462 34.581346 0.004
GW 112 9 0.0 51.872019 34.581346 0.0 63.399135 34.581346 0.004
GW 501 9 -5.76 0.0 11.527115 -5.76 11.527115 11.527115 0.004
GW 502 9 -5.76 17.287115 11.527115 -5.76 28.814231 11.527115 0.004
GW 503 9 -5.76 34.574231 11.527115 -5.76 46.101346 11.527115 0.004
GW 504 9 -5.76 51.861346 11.527115 -5.76 63.388462 11.527115 0.004
GW 505 9 -5.76 0.0 23.057115 -5.76 11.527115 23.057115 0.004
GW 506 9 -5.76 17.287115 23.057115 -5.76 28.814231 23.057115 0.004
GW 507 9 -5.76 34.574231 23.057115 -5.76 46.101346 23.057115 0.004
GW 508 9 -5.76 51.861346 23.057115 -5.76 63.388462 23.057115 0.004
GW 509 9 -5.76 0.0 34.587115 -5.76 11.527115 34.587115 0.004
GW 510 9 -5.76 17.287115 34.587115 -5.76 28.814231 34.587115 0.004
GW 511 9 -5.76 34.574231 34.587115 -5.76 46.101346 34.587115 0.004
GW 512 9 -5.76 51.861346 34.587115 -5.76 63.388462 34.587115 0.004
GE 1
EK
TL 501 9 506 1 -50
TL 502 1 505 9 -50
TL 503 9 508 1 -50
TL 504 1 507 9 -50
TL 505 9 510 1 -50
TL 506 1 509 9 -50
TL 507 9 512 1 -50
TL 508 1 511 9 -50
TL 101 5 102 5 -50 11
TL 101 5 103 5 -50 11
TL 101 5 104 5 -50 11
TL 101 5 105 5 -50 11
TL 101 5 106 5 -50 11
TL 101 5 107 5 -50 11
TL 101 5 108 5 -50 11
TL 101 5 109 5 -50 11
TL 101 5 110 5 -50 11
TL 101 5 111 5 -50 11
TL 101 5 112 5 -50 11
LD 5 0 0 0 3.8E7 0
EX 0 101 5 0 1 0
GN 2 0 0 0 13 0.005
FR 0 1 0 0 13.0 0
RP 0 91 360 1001 0. 0. 1. 1.
