CM Curtain Antenna with Tuned Dipole Reflector ([411] Centre-fed at 21.0 MHz - Tuned Dipole Reflector) -- CHRS-4-3-0.5
CM - - - created by 'The I.T.S. S.A.G. ver 0.80' on Mon Sep 23 09:37:25 2013
CM  - Wires 101-199 = Array Elements
CM  - Wires 501-599 = Tuned Array Elements
CE
GW 101 9 0.0 0.0 7.135833 0.0 7.135833 7.135833 0.004
GW 102 9 0.0 10.70375 7.135833 0.0 17.839583 7.135833 0.004
GW 103 9 0.0 21.4075 7.135833 0.0 28.543333 7.135833 0.004
GW 104 9 0.0 32.11125 7.135833 0.0 39.247083 7.135833 0.004
GW 105 9 0.0 0.0 14.271667 0.0 7.135833 14.271667 0.004
GW 106 9 0.0 10.70375 14.271667 0.0 17.839583 14.271667 0.004
GW 107 9 0.0 21.4075 14.271667 0.0 28.543333 14.271667 0.004
GW 108 9 0.0 32.11125 14.271667 0.0 39.247083 14.271667 0.004
GW 109 9 0.0 0.0 21.4075 0.0 7.135833 21.4075 0.004
GW 110 9 0.0 10.70375 21.4075 0.0 17.839583 21.4075 0.004
GW 111 9 0.0 21.4075 21.4075 0.0 28.543333 21.4075 0.004
GW 112 9 0.0 32.11125 21.4075 0.0 39.247083 21.4075 0.004
GW 501 9 -3.57 0.0 7.135833 -3.57 7.135833 7.135833 0.004
GW 502 9 -3.57 10.705833 7.135833 -3.57 17.841667 7.135833 0.004
GW 503 9 -3.57 21.411667 7.135833 -3.57 28.5475 7.135833 0.004
GW 504 9 -3.57 32.1175 7.135833 -3.57 39.253333 7.135833 0.004
GW 505 9 -3.57 0.0 14.275833 -3.57 7.135833 14.275833 0.004
GW 506 9 -3.57 10.705833 14.275833 -3.57 17.841667 14.275833 0.004
GW 507 9 -3.57 21.411667 14.275833 -3.57 28.5475 14.275833 0.004
GW 508 9 -3.57 32.1175 14.275833 -3.57 39.253333 14.275833 0.004
GW 509 9 -3.57 0.0 21.415833 -3.57 7.135833 21.415833 0.004
GW 510 9 -3.57 10.705833 21.415833 -3.57 17.841667 21.415833 0.004
GW 511 9 -3.57 21.411667 21.415833 -3.57 28.5475 21.415833 0.004
GW 512 9 -3.57 32.1175 21.415833 -3.57 39.253333 21.415833 0.004
GE 1
EK
TL 501 9 506 1 -50
TL 502 1 505 9 -50
TL 503 9 508 1 -50
TL 504 1 507 9 -50
TL 505 9 510 1 -50
TL 506 1 509 9 -50
TL 507 9 512 1 -50
TL 508 1 511 9 -50
TL 101 5 102 5 -50 11
TL 101 5 103 5 -50 11
TL 101 5 104 5 -50 11
TL 101 5 105 5 -50 11
TL 101 5 106 5 -50 11
TL 101 5 107 5 -50 11
TL 101 5 108 5 -50 11
TL 101 5 109 5 -50 11
TL 101 5 110 5 -50 11
TL 101 5 111 5 -50 11
TL 101 5 112 5 -50 11
LD 5 0 0 0 3.8E7 0
EX 0 101 5 0 1 0
GN 2 0 0 0 13 0.005
FR 0 1 0 0 21.0 0
RP 0 91 360 1001 0. 0. 1. 1.
