CM Curtain Antenna with Tuned Dipole Reflector ([386] Centre-fed at 27.0 MHz - Tuned Dipole Reflector) -- CHRS-3-2-0.5
CM - - - created by 'The I.T.S. S.A.G. ver 0.80' on Mon Sep 23 09:37:25 2013
CM  - Wires 101-199 = Array Elements
CM  - Wires 501-599 = Tuned Array Elements
CE
GW 101 9 0.0 0.0 5.550093 0.0 5.550093 5.550093 0.004
GW 102 9 0.0 8.325139 5.550093 0.0 13.875231 5.550093 0.004
GW 103 9 0.0 16.650278 5.550093 0.0 22.20037 5.550093 0.004
GW 104 9 0.0 0.0 11.100185 0.0 5.550093 11.100185 0.004
GW 105 9 0.0 8.325139 11.100185 0.0 13.875231 11.100185 0.004
GW 106 9 0.0 16.650278 11.100185 0.0 22.20037 11.100185 0.004
GW 501 9 -2.78 0.0 5.550093 -2.78 5.550093 5.550093 0.004
GW 502 9 -2.78 8.330093 5.550093 -2.78 13.880185 5.550093 0.004
GW 503 9 -2.78 16.660185 5.550093 -2.78 22.210278 5.550093 0.004
GW 504 9 -2.78 0.0 11.100093 -2.78 5.550093 11.100093 0.004
GW 505 9 -2.78 8.330093 11.100093 -2.78 13.880185 11.100093 0.004
GW 506 9 -2.78 16.660185 11.100093 -2.78 22.210278 11.100093 0.004
GE 1
EK
TL 501 9 505 1 -50
TL 502 1 504 9 -50
TL 101 5 102 5 -50 8
TL 101 5 103 5 -50 8
TL 101 5 104 5 -50 8
TL 101 5 105 5 -50 8
TL 101 5 106 5 -50 8
LD 5 0 0 0 3.8E7 0
EX 0 101 5 0 1 0
GN 2 0 0 0 13 0.005
FR 0 1 0 0 27.0 0
RP 0 91 360 1001 0. 0. 1. 1.
