CM Curtain Antenna with Tuned Dipole Reflector ([411] Centre-fed at 16.0 MHz - Tuned Dipole Reflector) -- CHRS-4-3-0.5
CM - - - created by 'The I.T.S. S.A.G. ver 0.80' on Mon Sep 23 09:37:25 2013
CM  - Wires 101-199 = Array Elements
CM  - Wires 501-599 = Tuned Array Elements
CE
GW 101 9 0.0 0.0 9.365781 0.0 9.365781 9.365781 0.004
GW 102 9 0.0 14.048672 9.365781 0.0 23.414453 9.365781 0.004
GW 103 9 0.0 28.097344 9.365781 0.0 37.463125 9.365781 0.004
GW 104 9 0.0 42.146016 9.365781 0.0 51.511797 9.365781 0.004
GW 105 9 0.0 0.0 18.731562 0.0 9.365781 18.731562 0.004
GW 106 9 0.0 14.048672 18.731562 0.0 23.414453 18.731562 0.004
GW 107 9 0.0 28.097344 18.731562 0.0 37.463125 18.731562 0.004
GW 108 9 0.0 42.146016 18.731562 0.0 51.511797 18.731562 0.004
GW 109 9 0.0 0.0 28.097344 0.0 9.365781 28.097344 0.004
GW 110 9 0.0 14.048672 28.097344 0.0 23.414453 28.097344 0.004
GW 111 9 0.0 28.097344 28.097344 0.0 37.463125 28.097344 0.004
GW 112 9 0.0 42.146016 28.097344 0.0 51.511797 28.097344 0.004
GW 501 9 -4.68 0.0 9.365781 -4.68 9.365781 9.365781 0.004
GW 502 9 -4.68 14.045781 9.365781 -4.68 23.411562 9.365781 0.004
GW 503 9 -4.68 28.091562 9.365781 -4.68 37.457344 9.365781 0.004
GW 504 9 -4.68 42.137344 9.365781 -4.68 51.503125 9.365781 0.004
GW 505 9 -4.68 0.0 18.735781 -4.68 9.365781 18.735781 0.004
GW 506 9 -4.68 14.045781 18.735781 -4.68 23.411562 18.735781 0.004
GW 507 9 -4.68 28.091562 18.735781 -4.68 37.457344 18.735781 0.004
GW 508 9 -4.68 42.137344 18.735781 -4.68 51.503125 18.735781 0.004
GW 509 9 -4.68 0.0 28.105781 -4.68 9.365781 28.105781 0.004
GW 510 9 -4.68 14.045781 28.105781 -4.68 23.411562 28.105781 0.004
GW 511 9 -4.68 28.091562 28.105781 -4.68 37.457344 28.105781 0.004
GW 512 9 -4.68 42.137344 28.105781 -4.68 51.503125 28.105781 0.004
GE 1
EK
TL 501 9 506 1 -50
TL 502 1 505 9 -50
TL 503 9 508 1 -50
TL 504 1 507 9 -50
TL 505 9 510 1 -50
TL 506 1 509 9 -50
TL 507 9 512 1 -50
TL 508 1 511 9 -50
TL 101 5 102 5 -50 11
TL 101 5 103 5 -50 11
TL 101 5 104 5 -50 11
TL 101 5 105 5 -50 11
TL 101 5 106 5 -50 11
TL 101 5 107 5 -50 11
TL 101 5 108 5 -50 11
TL 101 5 109 5 -50 11
TL 101 5 110 5 -50 11
TL 101 5 111 5 -50 11
TL 101 5 112 5 -50 11
LD 5 0 0 0 3.8E7 0
EX 0 101 5 0 1 0
GN 2 0 0 0 13 0.005
FR 0 1 0 0 16.0 0
RP 0 91 360 1001 0. 0. 1. 1.
