CM Curtain Antenna with Tuned Dipole Reflector ([411] Centre-fed at 27.0 MHz - Tuned Dipole Reflector) -- CHRS-4-3-0.5
CM - - - created by 'The I.T.S. S.A.G. ver 0.80' on Mon Sep 23 09:37:25 2013
CM  - Wires 101-199 = Array Elements
CM  - Wires 501-599 = Tuned Array Elements
CE
GW 101 9 0.0 0.0 5.550093 0.0 5.550093 5.550093 0.004
GW 102 9 0.0 8.325139 5.550093 0.0 13.875231 5.550093 0.004
GW 103 9 0.0 16.650278 5.550093 0.0 22.20037 5.550093 0.004
GW 104 9 0.0 24.975417 5.550093 0.0 30.525509 5.550093 0.004
GW 105 9 0.0 0.0 11.100185 0.0 5.550093 11.100185 0.004
GW 106 9 0.0 8.325139 11.100185 0.0 13.875231 11.100185 0.004
GW 107 9 0.0 16.650278 11.100185 0.0 22.20037 11.100185 0.004
GW 108 9 0.0 24.975417 11.100185 0.0 30.525509 11.100185 0.004
GW 109 9 0.0 0.0 16.650278 0.0 5.550093 16.650278 0.004
GW 110 9 0.0 8.325139 16.650278 0.0 13.875231 16.650278 0.004
GW 111 9 0.0 16.650278 16.650278 0.0 22.20037 16.650278 0.004
GW 112 9 0.0 24.975417 16.650278 0.0 30.525509 16.650278 0.004
GW 501 9 -2.78 0.0 5.550093 -2.78 5.550093 5.550093 0.004
GW 502 9 -2.78 8.330093 5.550093 -2.78 13.880185 5.550093 0.004
GW 503 9 -2.78 16.660185 5.550093 -2.78 22.210278 5.550093 0.004
GW 504 9 -2.78 24.990278 5.550093 -2.78 30.54037 5.550093 0.004
GW 505 9 -2.78 0.0 11.100093 -2.78 5.550093 11.100093 0.004
GW 506 9 -2.78 8.330093 11.100093 -2.78 13.880185 11.100093 0.004
GW 507 9 -2.78 16.660185 11.100093 -2.78 22.210278 11.100093 0.004
GW 508 9 -2.78 24.990278 11.100093 -2.78 30.54037 11.100093 0.004
GW 509 9 -2.78 0.0 16.650093 -2.78 5.550093 16.650093 0.004
GW 510 9 -2.78 8.330093 16.650093 -2.78 13.880185 16.650093 0.004
GW 511 9 -2.78 16.660185 16.650093 -2.78 22.210278 16.650093 0.004
GW 512 9 -2.78 24.990278 16.650093 -2.78 30.54037 16.650093 0.004
GE 1
EK
TL 501 9 506 1 -50
TL 502 1 505 9 -50
TL 503 9 508 1 -50
TL 504 1 507 9 -50
TL 505 9 510 1 -50
TL 506 1 509 9 -50
TL 507 9 512 1 -50
TL 508 1 511 9 -50
TL 101 5 102 5 -50 11
TL 101 5 103 5 -50 11
TL 101 5 104 5 -50 11
TL 101 5 105 5 -50 11
TL 101 5 106 5 -50 11
TL 101 5 107 5 -50 11
TL 101 5 108 5 -50 11
TL 101 5 109 5 -50 11
TL 101 5 110 5 -50 11
TL 101 5 111 5 -50 11
TL 101 5 112 5 -50 11
LD 5 0 0 0 3.8E7 0
EX 0 101 5 0 1 0
GN 2 0 0 0 13 0.005
FR 0 1 0 0 27.0 0
RP 0 91 360 1001 0. 0. 1. 1.
