CM Curtain Antenna with Tuned Dipole Reflector ([411] Centre-fed at 9.0 MHz - Tuned Dipole Reflector) -- CHRS-4-3-0.5
CM - - - created by 'The I.T.S. S.A.G. ver 0.80' on Mon Sep 23 09:37:25 2013
CM  - Wires 101-199 = Array Elements
CM  - Wires 501-599 = Tuned Array Elements
CE
GW 101 9 0.0 0.0 16.650278 0.0 16.650278 16.650278 0.004
GW 102 9 0.0 24.975417 16.650278 0.0 41.625694 16.650278 0.004
GW 103 9 0.0 49.950833 16.650278 0.0 66.601111 16.650278 0.004
GW 104 9 0.0 74.92625 16.650278 0.0 91.576528 16.650278 0.004
GW 105 9 0.0 0.0 33.300556 0.0 16.650278 33.300556 0.004
GW 106 9 0.0 24.975417 33.300556 0.0 41.625694 33.300556 0.004
GW 107 9 0.0 49.950833 33.300556 0.0 66.601111 33.300556 0.004
GW 108 9 0.0 74.92625 33.300556 0.0 91.576528 33.300556 0.004
GW 109 9 0.0 0.0 49.950833 0.0 16.650278 49.950833 0.004
GW 110 9 0.0 24.975417 49.950833 0.0 41.625694 49.950833 0.004
GW 111 9 0.0 49.950833 49.950833 0.0 66.601111 49.950833 0.004
GW 112 9 0.0 74.92625 49.950833 0.0 91.576528 49.950833 0.004
GW 501 9 -8.33 0.0 16.650278 -8.33 16.650278 16.650278 0.004
GW 502 9 -8.33 24.980278 16.650278 -8.33 41.630556 16.650278 0.004
GW 503 9 -8.33 49.960556 16.650278 -8.33 66.610833 16.650278 0.004
GW 504 9 -8.33 74.940833 16.650278 -8.33 91.591111 16.650278 0.004
GW 505 9 -8.33 0.0 33.300278 -8.33 16.650278 33.300278 0.004
GW 506 9 -8.33 24.980278 33.300278 -8.33 41.630556 33.300278 0.004
GW 507 9 -8.33 49.960556 33.300278 -8.33 66.610833 33.300278 0.004
GW 508 9 -8.33 74.940833 33.300278 -8.33 91.591111 33.300278 0.004
GW 509 9 -8.33 0.0 49.950278 -8.33 16.650278 49.950278 0.004
GW 510 9 -8.33 24.980278 49.950278 -8.33 41.630556 49.950278 0.004
GW 511 9 -8.33 49.960556 49.950278 -8.33 66.610833 49.950278 0.004
GW 512 9 -8.33 74.940833 49.950278 -8.33 91.591111 49.950278 0.004
GE 1
EK
TL 501 9 506 1 -50
TL 502 1 505 9 -50
TL 503 9 508 1 -50
TL 504 1 507 9 -50
TL 505 9 510 1 -50
TL 506 1 509 9 -50
TL 507 9 512 1 -50
TL 508 1 511 9 -50
TL 101 5 102 5 -50 11
TL 101 5 103 5 -50 11
TL 101 5 104 5 -50 11
TL 101 5 105 5 -50 11
TL 101 5 106 5 -50 11
TL 101 5 107 5 -50 11
TL 101 5 108 5 -50 11
TL 101 5 109 5 -50 11
TL 101 5 110 5 -50 11
TL 101 5 111 5 -50 11
TL 101 5 112 5 -50 11
LD 5 0 0 0 3.8E7 0
EX 0 101 5 0 1 0
GN 2 0 0 0 13 0.005
FR 0 1 0 0 9.0 0
RP 0 91 360 1001 0. 0. 1. 1.
