CM Curtain Antenna with Tuned Dipole Reflector ([386] Centre-fed at 10.0 MHz - Tuned Dipole Reflector) -- CHRS-3-2-0.5
CM - - - created by 'The I.T.S. S.A.G. ver 0.80' on Mon Sep 23 09:37:25 2013
CM  - Wires 101-199 = Array Elements
CM  - Wires 501-599 = Tuned Array Elements
CE
GW 101 9 0.0 0.0 14.98525 0.0 14.98525 14.98525 0.004
GW 102 9 0.0 22.477875 14.98525 0.0 37.463125 14.98525 0.004
GW 103 9 0.0 44.95575 14.98525 0.0 59.941 14.98525 0.004
GW 104 9 0.0 0.0 29.9705 0.0 14.98525 29.9705 0.004
GW 105 9 0.0 22.477875 29.9705 0.0 37.463125 29.9705 0.004
GW 106 9 0.0 44.95575 29.9705 0.0 59.941 29.9705 0.004
GW 501 9 -7.49 0.0 14.98525 -7.49 14.98525 14.98525 0.004
GW 502 9 -7.49 22.47525 14.98525 -7.49 37.4605 14.98525 0.004
GW 503 9 -7.49 44.9505 14.98525 -7.49 59.93575 14.98525 0.004
GW 504 9 -7.49 0.0 29.97525 -7.49 14.98525 29.97525 0.004
GW 505 9 -7.49 22.47525 29.97525 -7.49 37.4605 29.97525 0.004
GW 506 9 -7.49 44.9505 29.97525 -7.49 59.93575 29.97525 0.004
GE 1
EK
TL 501 9 505 1 -50
TL 502 1 504 9 -50
TL 101 5 102 5 -50 8
TL 101 5 103 5 -50 8
TL 101 5 104 5 -50 8
TL 101 5 105 5 -50 8
TL 101 5 106 5 -50 8
LD 5 0 0 0 3.8E7 0
EX 0 101 5 0 1 0
GN 2 0 0 0 13 0.005
FR 0 1 0 0 10.0 0
RP 0 91 360 1001 0. 0. 1. 1.
