CM Curtain Antenna with Tuned Dipole Reflector ([618] Edge-fed at 20.0 MHz - Tuned Dipole Reflector) -- EHRS-4-4-1.0
CM - - - created by 'The I.T.S. S.A.G. ver 0.80' on Mon Sep 23 09:37:25 2013
CM  - Wires 101-199 = Array Elements
CM  - Wires 501-599 = Tuned Array Elements
CE
GW 101 9 0.0 0.0 14.98525 0.0 7.492625 14.98525 0.004
GW 102 9 0.0 11.238937 14.98525 0.0 18.731562 14.98525 0.004
GW 103 9 0.0 22.477875 14.98525 0.0 29.9705 14.98525 0.004
GW 104 9 0.0 33.716812 14.98525 0.0 41.209437 14.98525 0.004
GW 105 9 0.0 0.0 22.477875 0.0 7.492625 22.477875 0.004
GW 106 9 0.0 11.238937 22.477875 0.0 18.731562 22.477875 0.004
GW 107 9 0.0 22.477875 22.477875 0.0 29.9705 22.477875 0.004
GW 108 9 0.0 33.716812 22.477875 0.0 41.209437 22.477875 0.004
GW 109 9 0.0 0.0 29.9705 0.0 7.492625 29.9705 0.004
GW 110 9 0.0 11.238937 29.9705 0.0 18.731562 29.9705 0.004
GW 111 9 0.0 22.477875 29.9705 0.0 29.9705 29.9705 0.004
GW 112 9 0.0 33.716812 29.9705 0.0 41.209437 29.9705 0.004
GW 113 9 0.0 0.0 37.463125 0.0 7.492625 37.463125 0.004
GW 114 9 0.0 11.238937 37.463125 0.0 18.731562 37.463125 0.004
GW 115 9 0.0 22.477875 37.463125 0.0 29.9705 37.463125 0.004
GW 116 9 0.0 33.716812 37.463125 0.0 41.209437 37.463125 0.004
GW 501 9 -3.75 0.0 14.98525 -3.75 7.492625 14.98525 0.004
GW 502 9 -3.75 11.242625 14.98525 -3.75 18.73525 14.98525 0.004
GW 503 9 -3.75 22.48525 14.98525 -3.75 29.977875 14.98525 0.004
GW 504 9 -3.75 33.727875 14.98525 -3.75 41.2205 14.98525 0.004
GW 505 9 -3.75 0.0 22.47525 -3.75 7.492625 22.47525 0.004
GW 506 9 -3.75 11.242625 22.47525 -3.75 18.73525 22.47525 0.004
GW 507 9 -3.75 22.48525 22.47525 -3.75 29.977875 22.47525 0.004
GW 508 9 -3.75 33.727875 22.47525 -3.75 41.2205 22.47525 0.004
GW 509 9 -3.75 0.0 29.96525 -3.75 7.492625 29.96525 0.004
GW 510 9 -3.75 11.242625 29.96525 -3.75 18.73525 29.96525 0.004
GW 511 9 -3.75 22.48525 29.96525 -3.75 29.977875 29.96525 0.004
GW 512 9 -3.75 33.727875 29.96525 -3.75 41.2205 29.96525 0.004
GW 513 9 -3.75 0.0 37.45525 -3.75 7.492625 37.45525 0.004
GW 514 9 -3.75 11.242625 37.45525 -3.75 18.73525 37.45525 0.004
GW 515 9 -3.75 22.48525 37.45525 -3.75 29.977875 37.45525 0.004
GW 516 9 -3.75 33.727875 37.45525 -3.75 41.2205 37.45525 0.004
GE 1
EK
TL 501 9 506 1 -50
TL 502 1 505 9 -50
TL 503 9 508 1 -50
TL 504 1 507 9 -50
TL 505 9 510 1 -50
TL 506 1 509 9 -50
TL 507 9 512 1 -50
TL 508 1 511 9 -50
TL 509 9 514 1 -50
TL 510 1 513 9 -50
TL 511 9 516 1 -50
TL 512 1 515 9 -50
TL 101 9 102 1 -50 12
TL 101 9 103 9 -50 12
TL 101 9 104 1 -50 12
TL 101 9 105 9 -50 12
TL 101 9 106 1 -50 12
TL 101 9 107 9 -50 12
TL 101 9 108 1 -50 12
TL 101 9 109 9 -50 12
TL 101 9 110 1 -50 12
TL 101 9 111 9 -50 12
TL 101 9 112 1 -50 12
TL 101 9 113 9 -50 12
TL 101 9 114 1 -50 12
TL 101 9 115 9 -50 12
TL 101 9 116 1 -50 12
LD 5 0 0 0 3.8E7 0
EX 0 101 9 0 2 0
GN 2 0 0 0 13 0.005
FR 0 1 0 0 20.0 0
RP 0 91 360 1001 0. 0. 1. 1.
