CM Curtain Antenna with Tuned Dipole Reflector ([616] Edge-fed at 18.0 MHz - Tuned Dipole Reflector) -- EHRS-4-4-0.5
CM - - - created by 'The I.T.S. S.A.G. ver 0.80' on Mon Sep 23 09:37:25 2013
CM  - Wires 101-199 = Array Elements
CM  - Wires 501-599 = Tuned Array Elements
CE
GW 101 9 0.0 0.0 8.325139 0.0 8.325139 8.325139 0.004
GW 102 9 0.0 12.487708 8.325139 0.0 20.812847 8.325139 0.004
GW 103 9 0.0 24.975417 8.325139 0.0 33.300556 8.325139 0.004
GW 104 9 0.0 37.463125 8.325139 0.0 45.788264 8.325139 0.004
GW 105 9 0.0 0.0 16.650278 0.0 8.325139 16.650278 0.004
GW 106 9 0.0 12.487708 16.650278 0.0 20.812847 16.650278 0.004
GW 107 9 0.0 24.975417 16.650278 0.0 33.300556 16.650278 0.004
GW 108 9 0.0 37.463125 16.650278 0.0 45.788264 16.650278 0.004
GW 109 9 0.0 0.0 24.975417 0.0 8.325139 24.975417 0.004
GW 110 9 0.0 12.487708 24.975417 0.0 20.812847 24.975417 0.004
GW 111 9 0.0 24.975417 24.975417 0.0 33.300556 24.975417 0.004
GW 112 9 0.0 37.463125 24.975417 0.0 45.788264 24.975417 0.004
GW 113 9 0.0 0.0 33.300556 0.0 8.325139 33.300556 0.004
GW 114 9 0.0 12.487708 33.300556 0.0 20.812847 33.300556 0.004
GW 115 9 0.0 24.975417 33.300556 0.0 33.300556 33.300556 0.004
GW 116 9 0.0 37.463125 33.300556 0.0 45.788264 33.300556 0.004
GW 501 9 -4.16 0.0 8.325139 -4.16 8.325139 8.325139 0.004
GW 502 9 -4.16 12.485139 8.325139 -4.16 20.810278 8.325139 0.004
GW 503 9 -4.16 24.970278 8.325139 -4.16 33.295417 8.325139 0.004
GW 504 9 -4.16 37.455417 8.325139 -4.16 45.780556 8.325139 0.004
GW 505 9 -4.16 0.0 16.655139 -4.16 8.325139 16.655139 0.004
GW 506 9 -4.16 12.485139 16.655139 -4.16 20.810278 16.655139 0.004
GW 507 9 -4.16 24.970278 16.655139 -4.16 33.295417 16.655139 0.004
GW 508 9 -4.16 37.455417 16.655139 -4.16 45.780556 16.655139 0.004
GW 509 9 -4.16 0.0 24.985139 -4.16 8.325139 24.985139 0.004
GW 510 9 -4.16 12.485139 24.985139 -4.16 20.810278 24.985139 0.004
GW 511 9 -4.16 24.970278 24.985139 -4.16 33.295417 24.985139 0.004
GW 512 9 -4.16 37.455417 24.985139 -4.16 45.780556 24.985139 0.004
GW 513 9 -4.16 0.0 33.315139 -4.16 8.325139 33.315139 0.004
GW 514 9 -4.16 12.485139 33.315139 -4.16 20.810278 33.315139 0.004
GW 515 9 -4.16 24.970278 33.315139 -4.16 33.295417 33.315139 0.004
GW 516 9 -4.16 37.455417 33.315139 -4.16 45.780556 33.315139 0.004
GE 1
EK
TL 501 9 506 1 -50
TL 502 1 505 9 -50
TL 503 9 508 1 -50
TL 504 1 507 9 -50
TL 505 9 510 1 -50
TL 506 1 509 9 -50
TL 507 9 512 1 -50
TL 508 1 511 9 -50
TL 509 9 514 1 -50
TL 510 1 513 9 -50
TL 511 9 516 1 -50
TL 512 1 515 9 -50
TL 101 9 102 1 -50 12
TL 101 9 103 9 -50 12
TL 101 9 104 1 -50 12
TL 101 9 105 9 -50 12
TL 101 9 106 1 -50 12
TL 101 9 107 9 -50 12
TL 101 9 108 1 -50 12
TL 101 9 109 9 -50 12
TL 101 9 110 1 -50 12
TL 101 9 111 9 -50 12
TL 101 9 112 1 -50 12
TL 101 9 113 9 -50 12
TL 101 9 114 1 -50 12
TL 101 9 115 9 -50 12
TL 101 9 116 1 -50 12
LD 5 0 0 0 3.8E7 0
EX 0 101 9 0 2 0
GN 2 0 0 0 13 0.005
FR 0 1 0 0 18.0 0
RP 0 91 360 1001 0. 0. 1. 1.
