CM Curtain Antenna with Tuned Dipole Reflector ([618] Edge-fed at 11.0 MHz - Tuned Dipole Reflector) -- EHRS-4-4-1.0
CM - - - created by 'The I.T.S. S.A.G. ver 0.80' on Mon Sep 23 09:37:25 2013
CM  - Wires 101-199 = Array Elements
CM  - Wires 501-599 = Tuned Array Elements
CE
GW 101 9 0.0 0.0 27.245909 0.0 13.622955 27.245909 0.004
GW 102 9 0.0 20.434432 27.245909 0.0 34.057386 27.245909 0.004
GW 103 9 0.0 40.868864 27.245909 0.0 54.491818 27.245909 0.004
GW 104 9 0.0 61.303295 27.245909 0.0 74.92625 27.245909 0.004
GW 105 9 0.0 0.0 40.868864 0.0 13.622955 40.868864 0.004
GW 106 9 0.0 20.434432 40.868864 0.0 34.057386 40.868864 0.004
GW 107 9 0.0 40.868864 40.868864 0.0 54.491818 40.868864 0.004
GW 108 9 0.0 61.303295 40.868864 0.0 74.92625 40.868864 0.004
GW 109 9 0.0 0.0 54.491818 0.0 13.622955 54.491818 0.004
GW 110 9 0.0 20.434432 54.491818 0.0 34.057386 54.491818 0.004
GW 111 9 0.0 40.868864 54.491818 0.0 54.491818 54.491818 0.004
GW 112 9 0.0 61.303295 54.491818 0.0 74.92625 54.491818 0.004
GW 113 9 0.0 0.0 68.114773 0.0 13.622955 68.114773 0.004
GW 114 9 0.0 20.434432 68.114773 0.0 34.057386 68.114773 0.004
GW 115 9 0.0 40.868864 68.114773 0.0 54.491818 68.114773 0.004
GW 116 9 0.0 61.303295 68.114773 0.0 74.92625 68.114773 0.004
GW 501 9 -6.81 0.0 27.245909 -6.81 13.622955 27.245909 0.004
GW 502 9 -6.81 20.432955 27.245909 -6.81 34.055909 27.245909 0.004
GW 503 9 -6.81 40.865909 27.245909 -6.81 54.488864 27.245909 0.004
GW 504 9 -6.81 61.298864 27.245909 -6.81 74.921818 27.245909 0.004
GW 505 9 -6.81 0.0 40.865909 -6.81 13.622955 40.865909 0.004
GW 506 9 -6.81 20.432955 40.865909 -6.81 34.055909 40.865909 0.004
GW 507 9 -6.81 40.865909 40.865909 -6.81 54.488864 40.865909 0.004
GW 508 9 -6.81 61.298864 40.865909 -6.81 74.921818 40.865909 0.004
GW 509 9 -6.81 0.0 54.485909 -6.81 13.622955 54.485909 0.004
GW 510 9 -6.81 20.432955 54.485909 -6.81 34.055909 54.485909 0.004
GW 511 9 -6.81 40.865909 54.485909 -6.81 54.488864 54.485909 0.004
GW 512 9 -6.81 61.298864 54.485909 -6.81 74.921818 54.485909 0.004
GW 513 9 -6.81 0.0 68.105909 -6.81 13.622955 68.105909 0.004
GW 514 9 -6.81 20.432955 68.105909 -6.81 34.055909 68.105909 0.004
GW 515 9 -6.81 40.865909 68.105909 -6.81 54.488864 68.105909 0.004
GW 516 9 -6.81 61.298864 68.105909 -6.81 74.921818 68.105909 0.004
GE 1
EK
TL 501 9 506 1 -50
TL 502 1 505 9 -50
TL 503 9 508 1 -50
TL 504 1 507 9 -50
TL 505 9 510 1 -50
TL 506 1 509 9 -50
TL 507 9 512 1 -50
TL 508 1 511 9 -50
TL 509 9 514 1 -50
TL 510 1 513 9 -50
TL 511 9 516 1 -50
TL 512 1 515 9 -50
TL 101 9 102 1 -50 12
TL 101 9 103 9 -50 12
TL 101 9 104 1 -50 12
TL 101 9 105 9 -50 12
TL 101 9 106 1 -50 12
TL 101 9 107 9 -50 12
TL 101 9 108 1 -50 12
TL 101 9 109 9 -50 12
TL 101 9 110 1 -50 12
TL 101 9 111 9 -50 12
TL 101 9 112 1 -50 12
TL 101 9 113 9 -50 12
TL 101 9 114 1 -50 12
TL 101 9 115 9 -50 12
TL 101 9 116 1 -50 12
LD 5 0 0 0 3.8E7 0
EX 0 101 9 0 2 0
GN 2 0 0 0 13 0.005
FR 0 1 0 0 11.0 0
RP 0 91 360 1001 0. 0. 1. 1.
