CM Curtain Antenna with Tuned Dipole Reflector ([616] Edge-fed at 4.0 MHz - Tuned Dipole Reflector) -- EHRS-4-4-0.5
CM - - - created by 'The I.T.S. S.A.G. ver 0.80' on Mon Sep 23 09:37:25 2013
CM  - Wires 101-199 = Array Elements
CM  - Wires 501-599 = Tuned Array Elements
CE
GW 101 9 0.0 0.0 37.463125 0.0 37.463125 37.463125 0.004
GW 102 9 0.0 56.194688 37.463125 0.0 93.657812 37.463125 0.004
GW 103 9 0.0 112.389375 37.463125 0.0 149.8525 37.463125 0.004
GW 104 9 0.0 168.584063 37.463125 0.0 206.047188 37.463125 0.004
GW 105 9 0.0 0.0 74.92625 0.0 37.463125 74.92625 0.004
GW 106 9 0.0 56.194688 74.92625 0.0 93.657812 74.92625 0.004
GW 107 9 0.0 112.389375 74.92625 0.0 149.8525 74.92625 0.004
GW 108 9 0.0 168.584063 74.92625 0.0 206.047188 74.92625 0.004
GW 109 9 0.0 0.0 112.389375 0.0 37.463125 112.389375 0.004
GW 110 9 0.0 56.194688 112.389375 0.0 93.657812 112.389375 0.004
GW 111 9 0.0 112.389375 112.389375 0.0 149.8525 112.389375 0.004
GW 112 9 0.0 168.584063 112.389375 0.0 206.047188 112.389375 0.004
GW 113 9 0.0 0.0 149.8525 0.0 37.463125 149.8525 0.004
GW 114 9 0.0 56.194688 149.8525 0.0 93.657812 149.8525 0.004
GW 115 9 0.0 112.389375 149.8525 0.0 149.8525 149.8525 0.004
GW 116 9 0.0 168.584063 149.8525 0.0 206.047188 149.8525 0.004
GW 501 9 -18.73 0.0 37.463125 -18.73 37.463125 37.463125 0.004
GW 502 9 -18.73 56.193125 37.463125 -18.73 93.65625 37.463125 0.004
GW 503 9 -18.73 112.38625 37.463125 -18.73 149.849375 37.463125 0.004
GW 504 9 -18.73 168.579375 37.463125 -18.73 206.0425 37.463125 0.004
GW 505 9 -18.73 0.0 74.923125 -18.73 37.463125 74.923125 0.004
GW 506 9 -18.73 56.193125 74.923125 -18.73 93.65625 74.923125 0.004
GW 507 9 -18.73 112.38625 74.923125 -18.73 149.849375 74.923125 0.004
GW 508 9 -18.73 168.579375 74.923125 -18.73 206.0425 74.923125 0.004
GW 509 9 -18.73 0.0 112.383125 -18.73 37.463125 112.383125 0.004
GW 510 9 -18.73 56.193125 112.383125 -18.73 93.65625 112.383125 0.004
GW 511 9 -18.73 112.38625 112.383125 -18.73 149.849375 112.383125 0.004
GW 512 9 -18.73 168.579375 112.383125 -18.73 206.0425 112.383125 0.004
GW 513 9 -18.73 0.0 149.843125 -18.73 37.463125 149.843125 0.004
GW 514 9 -18.73 56.193125 149.843125 -18.73 93.65625 149.843125 0.004
GW 515 9 -18.73 112.38625 149.843125 -18.73 149.849375 149.843125 0.004
GW 516 9 -18.73 168.579375 149.843125 -18.73 206.0425 149.843125 0.004
GE 1
EK
TL 501 9 506 1 -50
TL 502 1 505 9 -50
TL 503 9 508 1 -50
TL 504 1 507 9 -50
TL 505 9 510 1 -50
TL 506 1 509 9 -50
TL 507 9 512 1 -50
TL 508 1 511 9 -50
TL 509 9 514 1 -50
TL 510 1 513 9 -50
TL 511 9 516 1 -50
TL 512 1 515 9 -50
TL 101 9 102 1 -50 12
TL 101 9 103 9 -50 12
TL 101 9 104 1 -50 12
TL 101 9 105 9 -50 12
TL 101 9 106 1 -50 12
TL 101 9 107 9 -50 12
TL 101 9 108 1 -50 12
TL 101 9 109 9 -50 12
TL 101 9 110 1 -50 12
TL 101 9 111 9 -50 12
TL 101 9 112 1 -50 12
TL 101 9 113 9 -50 12
TL 101 9 114 1 -50 12
TL 101 9 115 9 -50 12
TL 101 9 116 1 -50 12
LD 5 0 0 0 3.8E7 0
EX 0 101 9 0 2 0
GN 2 0 0 0 13 0.005
FR 0 1 0 0 4.0 0
RP 0 91 360 1001 0. 0. 1. 1.
