CM Curtain Antenna with Tuned Dipole Reflector ([618] Edge-fed at 10.0 MHz - Tuned Dipole Reflector) -- EHRS-4-4-1.0
CM - - - created by 'The I.T.S. S.A.G. ver 0.80' on Mon Sep 23 09:37:25 2013
CM  - Wires 101-199 = Array Elements
CM  - Wires 501-599 = Tuned Array Elements
CE
GW 101 9 0.0 0.0 29.9705 0.0 14.98525 29.9705 0.004
GW 102 9 0.0 22.477875 29.9705 0.0 37.463125 29.9705 0.004
GW 103 9 0.0 44.95575 29.9705 0.0 59.941 29.9705 0.004
GW 104 9 0.0 67.433625 29.9705 0.0 82.418875 29.9705 0.004
GW 105 9 0.0 0.0 44.95575 0.0 14.98525 44.95575 0.004
GW 106 9 0.0 22.477875 44.95575 0.0 37.463125 44.95575 0.004
GW 107 9 0.0 44.95575 44.95575 0.0 59.941 44.95575 0.004
GW 108 9 0.0 67.433625 44.95575 0.0 82.418875 44.95575 0.004
GW 109 9 0.0 0.0 59.941 0.0 14.98525 59.941 0.004
GW 110 9 0.0 22.477875 59.941 0.0 37.463125 59.941 0.004
GW 111 9 0.0 44.95575 59.941 0.0 59.941 59.941 0.004
GW 112 9 0.0 67.433625 59.941 0.0 82.418875 59.941 0.004
GW 113 9 0.0 0.0 74.92625 0.0 14.98525 74.92625 0.004
GW 114 9 0.0 22.477875 74.92625 0.0 37.463125 74.92625 0.004
GW 115 9 0.0 44.95575 74.92625 0.0 59.941 74.92625 0.004
GW 116 9 0.0 67.433625 74.92625 0.0 82.418875 74.92625 0.004
GW 501 9 -7.49 0.0 29.9705 -7.49 14.98525 29.9705 0.004
GW 502 9 -7.49 22.47525 29.9705 -7.49 37.4605 29.9705 0.004
GW 503 9 -7.49 44.9505 29.9705 -7.49 59.93575 29.9705 0.004
GW 504 9 -7.49 67.42575 29.9705 -7.49 82.411 29.9705 0.004
GW 505 9 -7.49 0.0 44.9605 -7.49 14.98525 44.9605 0.004
GW 506 9 -7.49 22.47525 44.9605 -7.49 37.4605 44.9605 0.004
GW 507 9 -7.49 44.9505 44.9605 -7.49 59.93575 44.9605 0.004
GW 508 9 -7.49 67.42575 44.9605 -7.49 82.411 44.9605 0.004
GW 509 9 -7.49 0.0 59.9505 -7.49 14.98525 59.9505 0.004
GW 510 9 -7.49 22.47525 59.9505 -7.49 37.4605 59.9505 0.004
GW 511 9 -7.49 44.9505 59.9505 -7.49 59.93575 59.9505 0.004
GW 512 9 -7.49 67.42575 59.9505 -7.49 82.411 59.9505 0.004
GW 513 9 -7.49 0.0 74.9405 -7.49 14.98525 74.9405 0.004
GW 514 9 -7.49 22.47525 74.9405 -7.49 37.4605 74.9405 0.004
GW 515 9 -7.49 44.9505 74.9405 -7.49 59.93575 74.9405 0.004
GW 516 9 -7.49 67.42575 74.9405 -7.49 82.411 74.9405 0.004
GE 1
EK
TL 501 9 506 1 -50
TL 502 1 505 9 -50
TL 503 9 508 1 -50
TL 504 1 507 9 -50
TL 505 9 510 1 -50
TL 506 1 509 9 -50
TL 507 9 512 1 -50
TL 508 1 511 9 -50
TL 509 9 514 1 -50
TL 510 1 513 9 -50
TL 511 9 516 1 -50
TL 512 1 515 9 -50
TL 101 9 102 1 -50 12
TL 101 9 103 9 -50 12
TL 101 9 104 1 -50 12
TL 101 9 105 9 -50 12
TL 101 9 106 1 -50 12
TL 101 9 107 9 -50 12
TL 101 9 108 1 -50 12
TL 101 9 109 9 -50 12
TL 101 9 110 1 -50 12
TL 101 9 111 9 -50 12
TL 101 9 112 1 -50 12
TL 101 9 113 9 -50 12
TL 101 9 114 1 -50 12
TL 101 9 115 9 -50 12
TL 101 9 116 1 -50 12
LD 5 0 0 0 3.8E7 0
EX 0 101 9 0 2 0
GN 2 0 0 0 13 0.005
FR 0 1 0 0 10.0 0
RP 0 91 360 1001 0. 0. 1. 1.
