CM Curtain Antenna with Tuned Dipole Reflector ([618] Edge-fed at 16.0 MHz - Tuned Dipole Reflector) -- EHRS-4-4-1.0
CM - - - created by 'The I.T.S. S.A.G. ver 0.80' on Mon Sep 23 09:37:25 2013
CM  - Wires 101-199 = Array Elements
CM  - Wires 501-599 = Tuned Array Elements
CE
GW 101 9 0.0 0.0 18.731562 0.0 9.365781 18.731562 0.004
GW 102 9 0.0 14.048672 18.731562 0.0 23.414453 18.731562 0.004
GW 103 9 0.0 28.097344 18.731562 0.0 37.463125 18.731562 0.004
GW 104 9 0.0 42.146016 18.731562 0.0 51.511797 18.731562 0.004
GW 105 9 0.0 0.0 28.097344 0.0 9.365781 28.097344 0.004
GW 106 9 0.0 14.048672 28.097344 0.0 23.414453 28.097344 0.004
GW 107 9 0.0 28.097344 28.097344 0.0 37.463125 28.097344 0.004
GW 108 9 0.0 42.146016 28.097344 0.0 51.511797 28.097344 0.004
GW 109 9 0.0 0.0 37.463125 0.0 9.365781 37.463125 0.004
GW 110 9 0.0 14.048672 37.463125 0.0 23.414453 37.463125 0.004
GW 111 9 0.0 28.097344 37.463125 0.0 37.463125 37.463125 0.004
GW 112 9 0.0 42.146016 37.463125 0.0 51.511797 37.463125 0.004
GW 113 9 0.0 0.0 46.828906 0.0 9.365781 46.828906 0.004
GW 114 9 0.0 14.048672 46.828906 0.0 23.414453 46.828906 0.004
GW 115 9 0.0 28.097344 46.828906 0.0 37.463125 46.828906 0.004
GW 116 9 0.0 42.146016 46.828906 0.0 51.511797 46.828906 0.004
GW 501 9 -4.68 0.0 18.731562 -4.68 9.365781 18.731562 0.004
GW 502 9 -4.68 14.045781 18.731562 -4.68 23.411562 18.731562 0.004
GW 503 9 -4.68 28.091562 18.731562 -4.68 37.457344 18.731562 0.004
GW 504 9 -4.68 42.137344 18.731562 -4.68 51.503125 18.731562 0.004
GW 505 9 -4.68 0.0 28.101563 -4.68 9.365781 28.101563 0.004
GW 506 9 -4.68 14.045781 28.101563 -4.68 23.411562 28.101563 0.004
GW 507 9 -4.68 28.091562 28.101563 -4.68 37.457344 28.101563 0.004
GW 508 9 -4.68 42.137344 28.101563 -4.68 51.503125 28.101563 0.004
GW 509 9 -4.68 0.0 37.471562 -4.68 9.365781 37.471562 0.004
GW 510 9 -4.68 14.045781 37.471562 -4.68 23.411562 37.471562 0.004
GW 511 9 -4.68 28.091562 37.471562 -4.68 37.457344 37.471562 0.004
GW 512 9 -4.68 42.137344 37.471562 -4.68 51.503125 37.471562 0.004
GW 513 9 -4.68 0.0 46.841562 -4.68 9.365781 46.841562 0.004
GW 514 9 -4.68 14.045781 46.841562 -4.68 23.411562 46.841562 0.004
GW 515 9 -4.68 28.091562 46.841562 -4.68 37.457344 46.841562 0.004
GW 516 9 -4.68 42.137344 46.841562 -4.68 51.503125 46.841562 0.004
GE 1
EK
TL 501 9 506 1 -50
TL 502 1 505 9 -50
TL 503 9 508 1 -50
TL 504 1 507 9 -50
TL 505 9 510 1 -50
TL 506 1 509 9 -50
TL 507 9 512 1 -50
TL 508 1 511 9 -50
TL 509 9 514 1 -50
TL 510 1 513 9 -50
TL 511 9 516 1 -50
TL 512 1 515 9 -50
TL 101 9 102 1 -50 12
TL 101 9 103 9 -50 12
TL 101 9 104 1 -50 12
TL 101 9 105 9 -50 12
TL 101 9 106 1 -50 12
TL 101 9 107 9 -50 12
TL 101 9 108 1 -50 12
TL 101 9 109 9 -50 12
TL 101 9 110 1 -50 12
TL 101 9 111 9 -50 12
TL 101 9 112 1 -50 12
TL 101 9 113 9 -50 12
TL 101 9 114 1 -50 12
TL 101 9 115 9 -50 12
TL 101 9 116 1 -50 12
LD 5 0 0 0 3.8E7 0
EX 0 101 9 0 2 0
GN 2 0 0 0 13 0.005
FR 0 1 0 0 16.0 0
RP 0 91 360 1001 0. 0. 1. 1.
