CM Curtain Antenna with Tuned Dipole Reflector ([618] Edge-fed at 25.0 MHz - Tuned Dipole Reflector) -- EHRS-4-4-1.0
CM - - - created by 'The I.T.S. S.A.G. ver 0.80' on Mon Sep 23 09:37:25 2013
CM  - Wires 101-199 = Array Elements
CM  - Wires 501-599 = Tuned Array Elements
CE
GW 101 9 0.0 0.0 11.9882 0.0 5.9941 11.9882 0.004
GW 102 9 0.0 8.99115 11.9882 0.0 14.98525 11.9882 0.004
GW 103 9 0.0 17.9823 11.9882 0.0 23.9764 11.9882 0.004
GW 104 9 0.0 26.97345 11.9882 0.0 32.96755 11.9882 0.004
GW 105 9 0.0 0.0 17.9823 0.0 5.9941 17.9823 0.004
GW 106 9 0.0 8.99115 17.9823 0.0 14.98525 17.9823 0.004
GW 107 9 0.0 17.9823 17.9823 0.0 23.9764 17.9823 0.004
GW 108 9 0.0 26.97345 17.9823 0.0 32.96755 17.9823 0.004
GW 109 9 0.0 0.0 23.9764 0.0 5.9941 23.9764 0.004
GW 110 9 0.0 8.99115 23.9764 0.0 14.98525 23.9764 0.004
GW 111 9 0.0 17.9823 23.9764 0.0 23.9764 23.9764 0.004
GW 112 9 0.0 26.97345 23.9764 0.0 32.96755 23.9764 0.004
GW 113 9 0.0 0.0 29.9705 0.0 5.9941 29.9705 0.004
GW 114 9 0.0 8.99115 29.9705 0.0 14.98525 29.9705 0.004
GW 115 9 0.0 17.9823 29.9705 0.0 23.9764 29.9705 0.004
GW 116 9 0.0 26.97345 29.9705 0.0 32.96755 29.9705 0.004
GW 501 9 -3.0 0.0 11.9882 -3.0 5.9941 11.9882 0.004
GW 502 9 -3.0 8.9941 11.9882 -3.0 14.9882 11.9882 0.004
GW 503 9 -3.0 17.9882 11.9882 -3.0 23.9823 11.9882 0.004
GW 504 9 -3.0 26.9823 11.9882 -3.0 32.9764 11.9882 0.004
GW 505 9 -3.0 0.0 17.9782 -3.0 5.9941 17.9782 0.004
GW 506 9 -3.0 8.9941 17.9782 -3.0 14.9882 17.9782 0.004
GW 507 9 -3.0 17.9882 17.9782 -3.0 23.9823 17.9782 0.004
GW 508 9 -3.0 26.9823 17.9782 -3.0 32.9764 17.9782 0.004
GW 509 9 -3.0 0.0 23.9682 -3.0 5.9941 23.9682 0.004
GW 510 9 -3.0 8.9941 23.9682 -3.0 14.9882 23.9682 0.004
GW 511 9 -3.0 17.9882 23.9682 -3.0 23.9823 23.9682 0.004
GW 512 9 -3.0 26.9823 23.9682 -3.0 32.9764 23.9682 0.004
GW 513 9 -3.0 0.0 29.9582 -3.0 5.9941 29.9582 0.004
GW 514 9 -3.0 8.9941 29.9582 -3.0 14.9882 29.9582 0.004
GW 515 9 -3.0 17.9882 29.9582 -3.0 23.9823 29.9582 0.004
GW 516 9 -3.0 26.9823 29.9582 -3.0 32.9764 29.9582 0.004
GE 1
EK
TL 501 9 506 1 -50
TL 502 1 505 9 -50
TL 503 9 508 1 -50
TL 504 1 507 9 -50
TL 505 9 510 1 -50
TL 506 1 509 9 -50
TL 507 9 512 1 -50
TL 508 1 511 9 -50
TL 509 9 514 1 -50
TL 510 1 513 9 -50
TL 511 9 516 1 -50
TL 512 1 515 9 -50
TL 101 9 102 1 -50 12
TL 101 9 103 9 -50 12
TL 101 9 104 1 -50 12
TL 101 9 105 9 -50 12
TL 101 9 106 1 -50 12
TL 101 9 107 9 -50 12
TL 101 9 108 1 -50 12
TL 101 9 109 9 -50 12
TL 101 9 110 1 -50 12
TL 101 9 111 9 -50 12
TL 101 9 112 1 -50 12
TL 101 9 113 9 -50 12
TL 101 9 114 1 -50 12
TL 101 9 115 9 -50 12
TL 101 9 116 1 -50 12
LD 5 0 0 0 3.8E7 0
EX 0 101 9 0 2 0
GN 2 0 0 0 13 0.005
FR 0 1 0 0 25.0 0
RP 0 91 360 1001 0. 0. 1. 1.
