CM Curtain Antenna with Tuned Dipole Reflector ([618] Edge-fed at 19.0 MHz - Tuned Dipole Reflector) -- EHRS-4-4-1.0
CM - - - created by 'The I.T.S. S.A.G. ver 0.80' on Mon Sep 23 09:37:25 2013
CM  - Wires 101-199 = Array Elements
CM  - Wires 501-599 = Tuned Array Elements
CE
GW 101 9 0.0 0.0 15.773947 0.0 7.886974 15.773947 0.004
GW 102 9 0.0 11.830461 15.773947 0.0 19.717434 15.773947 0.004
GW 103 9 0.0 23.660921 15.773947 0.0 31.547895 15.773947 0.004
GW 104 9 0.0 35.491382 15.773947 0.0 43.378355 15.773947 0.004
GW 105 9 0.0 0.0 23.660921 0.0 7.886974 23.660921 0.004
GW 106 9 0.0 11.830461 23.660921 0.0 19.717434 23.660921 0.004
GW 107 9 0.0 23.660921 23.660921 0.0 31.547895 23.660921 0.004
GW 108 9 0.0 35.491382 23.660921 0.0 43.378355 23.660921 0.004
GW 109 9 0.0 0.0 31.547895 0.0 7.886974 31.547895 0.004
GW 110 9 0.0 11.830461 31.547895 0.0 19.717434 31.547895 0.004
GW 111 9 0.0 23.660921 31.547895 0.0 31.547895 31.547895 0.004
GW 112 9 0.0 35.491382 31.547895 0.0 43.378355 31.547895 0.004
GW 113 9 0.0 0.0 39.434868 0.0 7.886974 39.434868 0.004
GW 114 9 0.0 11.830461 39.434868 0.0 19.717434 39.434868 0.004
GW 115 9 0.0 23.660921 39.434868 0.0 31.547895 39.434868 0.004
GW 116 9 0.0 35.491382 39.434868 0.0 43.378355 39.434868 0.004
GW 501 9 -3.94 0.0 15.773947 -3.94 7.886974 15.773947 0.004
GW 502 9 -3.94 11.826974 15.773947 -3.94 19.713947 15.773947 0.004
GW 503 9 -3.94 23.653947 15.773947 -3.94 31.540921 15.773947 0.004
GW 504 9 -3.94 35.480921 15.773947 -3.94 43.367895 15.773947 0.004
GW 505 9 -3.94 0.0 23.663947 -3.94 7.886974 23.663947 0.004
GW 506 9 -3.94 11.826974 23.663947 -3.94 19.713947 23.663947 0.004
GW 507 9 -3.94 23.653947 23.663947 -3.94 31.540921 23.663947 0.004
GW 508 9 -3.94 35.480921 23.663947 -3.94 43.367895 23.663947 0.004
GW 509 9 -3.94 0.0 31.553947 -3.94 7.886974 31.553947 0.004
GW 510 9 -3.94 11.826974 31.553947 -3.94 19.713947 31.553947 0.004
GW 511 9 -3.94 23.653947 31.553947 -3.94 31.540921 31.553947 0.004
GW 512 9 -3.94 35.480921 31.553947 -3.94 43.367895 31.553947 0.004
GW 513 9 -3.94 0.0 39.443947 -3.94 7.886974 39.443947 0.004
GW 514 9 -3.94 11.826974 39.443947 -3.94 19.713947 39.443947 0.004
GW 515 9 -3.94 23.653947 39.443947 -3.94 31.540921 39.443947 0.004
GW 516 9 -3.94 35.480921 39.443947 -3.94 43.367895 39.443947 0.004
GE 1
EK
TL 501 9 506 1 -50
TL 502 1 505 9 -50
TL 503 9 508 1 -50
TL 504 1 507 9 -50
TL 505 9 510 1 -50
TL 506 1 509 9 -50
TL 507 9 512 1 -50
TL 508 1 511 9 -50
TL 509 9 514 1 -50
TL 510 1 513 9 -50
TL 511 9 516 1 -50
TL 512 1 515 9 -50
TL 101 9 102 1 -50 12
TL 101 9 103 9 -50 12
TL 101 9 104 1 -50 12
TL 101 9 105 9 -50 12
TL 101 9 106 1 -50 12
TL 101 9 107 9 -50 12
TL 101 9 108 1 -50 12
TL 101 9 109 9 -50 12
TL 101 9 110 1 -50 12
TL 101 9 111 9 -50 12
TL 101 9 112 1 -50 12
TL 101 9 113 9 -50 12
TL 101 9 114 1 -50 12
TL 101 9 115 9 -50 12
TL 101 9 116 1 -50 12
LD 5 0 0 0 3.8E7 0
EX 0 101 9 0 2 0
GN 2 0 0 0 13 0.005
FR 0 1 0 0 19.0 0
RP 0 91 360 1001 0. 0. 1. 1.
