CM Curtain Antenna with Tuned Dipole Reflector ([618] Edge-fed at 5.0 MHz - Tuned Dipole Reflector) -- EHRS-4-4-1.0
CM - - - created by 'The I.T.S. S.A.G. ver 0.80' on Mon Sep 23 09:37:25 2013
CM  - Wires 101-199 = Array Elements
CM  - Wires 501-599 = Tuned Array Elements
CE
GW 101 9 0.0 0.0 59.941 0.0 29.9705 59.941 0.004
GW 102 9 0.0 44.95575 59.941 0.0 74.92625 59.941 0.004
GW 103 9 0.0 89.9115 59.941 0.0 119.882 59.941 0.004
GW 104 9 0.0 134.86725 59.941 0.0 164.83775 59.941 0.004
GW 105 9 0.0 0.0 89.9115 0.0 29.9705 89.9115 0.004
GW 106 9 0.0 44.95575 89.9115 0.0 74.92625 89.9115 0.004
GW 107 9 0.0 89.9115 89.9115 0.0 119.882 89.9115 0.004
GW 108 9 0.0 134.86725 89.9115 0.0 164.83775 89.9115 0.004
GW 109 9 0.0 0.0 119.882 0.0 29.9705 119.882 0.004
GW 110 9 0.0 44.95575 119.882 0.0 74.92625 119.882 0.004
GW 111 9 0.0 89.9115 119.882 0.0 119.882 119.882 0.004
GW 112 9 0.0 134.86725 119.882 0.0 164.83775 119.882 0.004
GW 113 9 0.0 0.0 149.8525 0.0 29.9705 149.8525 0.004
GW 114 9 0.0 44.95575 149.8525 0.0 74.92625 149.8525 0.004
GW 115 9 0.0 89.9115 149.8525 0.0 119.882 149.8525 0.004
GW 116 9 0.0 134.86725 149.8525 0.0 164.83775 149.8525 0.004
GW 501 9 -14.99 0.0 59.941 -14.99 29.9705 59.941 0.004
GW 502 9 -14.99 44.9605 59.941 -14.99 74.931 59.941 0.004
GW 503 9 -14.99 89.921 59.941 -14.99 119.8915 59.941 0.004
GW 504 9 -14.99 134.8815 59.941 -14.99 164.852 59.941 0.004
GW 505 9 -14.99 0.0 89.911 -14.99 29.9705 89.911 0.004
GW 506 9 -14.99 44.9605 89.911 -14.99 74.931 89.911 0.004
GW 507 9 -14.99 89.921 89.911 -14.99 119.8915 89.911 0.004
GW 508 9 -14.99 134.8815 89.911 -14.99 164.852 89.911 0.004
GW 509 9 -14.99 0.0 119.881 -14.99 29.9705 119.881 0.004
GW 510 9 -14.99 44.9605 119.881 -14.99 74.931 119.881 0.004
GW 511 9 -14.99 89.921 119.881 -14.99 119.8915 119.881 0.004
GW 512 9 -14.99 134.8815 119.881 -14.99 164.852 119.881 0.004
GW 513 9 -14.99 0.0 149.851 -14.99 29.9705 149.851 0.004
GW 514 9 -14.99 44.9605 149.851 -14.99 74.931 149.851 0.004
GW 515 9 -14.99 89.921 149.851 -14.99 119.8915 149.851 0.004
GW 516 9 -14.99 134.8815 149.851 -14.99 164.852 149.851 0.004
GE 1
EK
TL 501 9 506 1 -50
TL 502 1 505 9 -50
TL 503 9 508 1 -50
TL 504 1 507 9 -50
TL 505 9 510 1 -50
TL 506 1 509 9 -50
TL 507 9 512 1 -50
TL 508 1 511 9 -50
TL 509 9 514 1 -50
TL 510 1 513 9 -50
TL 511 9 516 1 -50
TL 512 1 515 9 -50
TL 101 9 102 1 -50 12
TL 101 9 103 9 -50 12
TL 101 9 104 1 -50 12
TL 101 9 105 9 -50 12
TL 101 9 106 1 -50 12
TL 101 9 107 9 -50 12
TL 101 9 108 1 -50 12
TL 101 9 109 9 -50 12
TL 101 9 110 1 -50 12
TL 101 9 111 9 -50 12
TL 101 9 112 1 -50 12
TL 101 9 113 9 -50 12
TL 101 9 114 1 -50 12
TL 101 9 115 9 -50 12
TL 101 9 116 1 -50 12
LD 5 0 0 0 3.8E7 0
EX 0 101 9 0 2 0
GN 2 0 0 0 13 0.005
FR 0 1 0 0 5.0 0
RP 0 91 360 1001 0. 0. 1. 1.
