CM Curtain Antenna with Tuned Dipole Reflector ([618] Edge-fed at 14.0 MHz - Tuned Dipole Reflector) -- EHRS-4-4-1.0
CM - - - created by 'The I.T.S. S.A.G. ver 0.80' on Mon Sep 23 09:37:25 2013
CM  - Wires 101-199 = Array Elements
CM  - Wires 501-599 = Tuned Array Elements
CE
GW 101 9 0.0 0.0 21.4075 0.0 10.70375 21.4075 0.004
GW 102 9 0.0 16.055625 21.4075 0.0 26.759375 21.4075 0.004
GW 103 9 0.0 32.11125 21.4075 0.0 42.815 21.4075 0.004
GW 104 9 0.0 48.166875 21.4075 0.0 58.870625 21.4075 0.004
GW 105 9 0.0 0.0 32.11125 0.0 10.70375 32.11125 0.004
GW 106 9 0.0 16.055625 32.11125 0.0 26.759375 32.11125 0.004
GW 107 9 0.0 32.11125 32.11125 0.0 42.815 32.11125 0.004
GW 108 9 0.0 48.166875 32.11125 0.0 58.870625 32.11125 0.004
GW 109 9 0.0 0.0 42.815 0.0 10.70375 42.815 0.004
GW 110 9 0.0 16.055625 42.815 0.0 26.759375 42.815 0.004
GW 111 9 0.0 32.11125 42.815 0.0 42.815 42.815 0.004
GW 112 9 0.0 48.166875 42.815 0.0 58.870625 42.815 0.004
GW 113 9 0.0 0.0 53.51875 0.0 10.70375 53.51875 0.004
GW 114 9 0.0 16.055625 53.51875 0.0 26.759375 53.51875 0.004
GW 115 9 0.0 32.11125 53.51875 0.0 42.815 53.51875 0.004
GW 116 9 0.0 48.166875 53.51875 0.0 58.870625 53.51875 0.004
GW 501 9 -5.35 0.0 21.4075 -5.35 10.70375 21.4075 0.004
GW 502 9 -5.35 16.05375 21.4075 -5.35 26.7575 21.4075 0.004
GW 503 9 -5.35 32.1075 21.4075 -5.35 42.81125 21.4075 0.004
GW 504 9 -5.35 48.16125 21.4075 -5.35 58.865 21.4075 0.004
GW 505 9 -5.35 0.0 32.1075 -5.35 10.70375 32.1075 0.004
GW 506 9 -5.35 16.05375 32.1075 -5.35 26.7575 32.1075 0.004
GW 507 9 -5.35 32.1075 32.1075 -5.35 42.81125 32.1075 0.004
GW 508 9 -5.35 48.16125 32.1075 -5.35 58.865 32.1075 0.004
GW 509 9 -5.35 0.0 42.8075 -5.35 10.70375 42.8075 0.004
GW 510 9 -5.35 16.05375 42.8075 -5.35 26.7575 42.8075 0.004
GW 511 9 -5.35 32.1075 42.8075 -5.35 42.81125 42.8075 0.004
GW 512 9 -5.35 48.16125 42.8075 -5.35 58.865 42.8075 0.004
GW 513 9 -5.35 0.0 53.5075 -5.35 10.70375 53.5075 0.004
GW 514 9 -5.35 16.05375 53.5075 -5.35 26.7575 53.5075 0.004
GW 515 9 -5.35 32.1075 53.5075 -5.35 42.81125 53.5075 0.004
GW 516 9 -5.35 48.16125 53.5075 -5.35 58.865 53.5075 0.004
GE 1
EK
TL 501 9 506 1 -50
TL 502 1 505 9 -50
TL 503 9 508 1 -50
TL 504 1 507 9 -50
TL 505 9 510 1 -50
TL 506 1 509 9 -50
TL 507 9 512 1 -50
TL 508 1 511 9 -50
TL 509 9 514 1 -50
TL 510 1 513 9 -50
TL 511 9 516 1 -50
TL 512 1 515 9 -50
TL 101 9 102 1 -50 12
TL 101 9 103 9 -50 12
TL 101 9 104 1 -50 12
TL 101 9 105 9 -50 12
TL 101 9 106 1 -50 12
TL 101 9 107 9 -50 12
TL 101 9 108 1 -50 12
TL 101 9 109 9 -50 12
TL 101 9 110 1 -50 12
TL 101 9 111 9 -50 12
TL 101 9 112 1 -50 12
TL 101 9 113 9 -50 12
TL 101 9 114 1 -50 12
TL 101 9 115 9 -50 12
TL 101 9 116 1 -50 12
LD 5 0 0 0 3.8E7 0
EX 0 101 9 0 2 0
GN 2 0 0 0 13 0.005
FR 0 1 0 0 14.0 0
RP 0 91 360 1001 0. 0. 1. 1.
