CM Curtain Antenna with Tuned Dipole Reflector ([618] Edge-fed at 29.0 MHz - Tuned Dipole Reflector) -- EHRS-4-4-1.0
CM - - - created by 'The I.T.S. S.A.G. ver 0.80' on Mon Sep 23 09:37:25 2013
CM  - Wires 101-199 = Array Elements
CM  - Wires 501-599 = Tuned Array Elements
CE
GW 101 9 0.0 0.0 10.334655 0.0 5.167328 10.334655 0.004
GW 102 9 0.0 7.750991 10.334655 0.0 12.918319 10.334655 0.004
GW 103 9 0.0 15.501983 10.334655 0.0 20.66931 10.334655 0.004
GW 104 9 0.0 23.252974 10.334655 0.0 28.420302 10.334655 0.004
GW 105 9 0.0 0.0 15.501983 0.0 5.167328 15.501983 0.004
GW 106 9 0.0 7.750991 15.501983 0.0 12.918319 15.501983 0.004
GW 107 9 0.0 15.501983 15.501983 0.0 20.66931 15.501983 0.004
GW 108 9 0.0 23.252974 15.501983 0.0 28.420302 15.501983 0.004
GW 109 9 0.0 0.0 20.66931 0.0 5.167328 20.66931 0.004
GW 110 9 0.0 7.750991 20.66931 0.0 12.918319 20.66931 0.004
GW 111 9 0.0 15.501983 20.66931 0.0 20.66931 20.66931 0.004
GW 112 9 0.0 23.252974 20.66931 0.0 28.420302 20.66931 0.004
GW 113 9 0.0 0.0 25.836638 0.0 5.167328 25.836638 0.004
GW 114 9 0.0 7.750991 25.836638 0.0 12.918319 25.836638 0.004
GW 115 9 0.0 15.501983 25.836638 0.0 20.66931 25.836638 0.004
GW 116 9 0.0 23.252974 25.836638 0.0 28.420302 25.836638 0.004
GW 501 9 -2.58 0.0 10.334655 -2.58 5.167328 10.334655 0.004
GW 502 9 -2.58 7.747328 10.334655 -2.58 12.914655 10.334655 0.004
GW 503 9 -2.58 15.494655 10.334655 -2.58 20.661983 10.334655 0.004
GW 504 9 -2.58 23.241983 10.334655 -2.58 28.40931 10.334655 0.004
GW 505 9 -2.58 0.0 15.504655 -2.58 5.167328 15.504655 0.004
GW 506 9 -2.58 7.747328 15.504655 -2.58 12.914655 15.504655 0.004
GW 507 9 -2.58 15.494655 15.504655 -2.58 20.661983 15.504655 0.004
GW 508 9 -2.58 23.241983 15.504655 -2.58 28.40931 15.504655 0.004
GW 509 9 -2.58 0.0 20.674655 -2.58 5.167328 20.674655 0.004
GW 510 9 -2.58 7.747328 20.674655 -2.58 12.914655 20.674655 0.004
GW 511 9 -2.58 15.494655 20.674655 -2.58 20.661983 20.674655 0.004
GW 512 9 -2.58 23.241983 20.674655 -2.58 28.40931 20.674655 0.004
GW 513 9 -2.58 0.0 25.844655 -2.58 5.167328 25.844655 0.004
GW 514 9 -2.58 7.747328 25.844655 -2.58 12.914655 25.844655 0.004
GW 515 9 -2.58 15.494655 25.844655 -2.58 20.661983 25.844655 0.004
GW 516 9 -2.58 23.241983 25.844655 -2.58 28.40931 25.844655 0.004
GE 1
EK
TL 501 9 506 1 -50
TL 502 1 505 9 -50
TL 503 9 508 1 -50
TL 504 1 507 9 -50
TL 505 9 510 1 -50
TL 506 1 509 9 -50
TL 507 9 512 1 -50
TL 508 1 511 9 -50
TL 509 9 514 1 -50
TL 510 1 513 9 -50
TL 511 9 516 1 -50
TL 512 1 515 9 -50
TL 101 9 102 1 -50 12
TL 101 9 103 9 -50 12
TL 101 9 104 1 -50 12
TL 101 9 105 9 -50 12
TL 101 9 106 1 -50 12
TL 101 9 107 9 -50 12
TL 101 9 108 1 -50 12
TL 101 9 109 9 -50 12
TL 101 9 110 1 -50 12
TL 101 9 111 9 -50 12
TL 101 9 112 1 -50 12
TL 101 9 113 9 -50 12
TL 101 9 114 1 -50 12
TL 101 9 115 9 -50 12
TL 101 9 116 1 -50 12
LD 5 0 0 0 3.8E7 0
EX 0 101 9 0 2 0
GN 2 0 0 0 13 0.005
FR 0 1 0 0 29.0 0
RP 0 91 360 1001 0. 0. 1. 1.
