CM Curtain Antenna with Tuned Dipole Reflector ([618] Edge-fed at 6.0 MHz - Tuned Dipole Reflector) -- EHRS-4-4-1.0
CM - - - created by 'The I.T.S. S.A.G. ver 0.80' on Mon Sep 23 09:37:25 2013
CM  - Wires 101-199 = Array Elements
CM  - Wires 501-599 = Tuned Array Elements
CE
GW 101 9 0.0 0.0 49.950833 0.0 24.975417 49.950833 0.004
GW 102 9 0.0 37.463125 49.950833 0.0 62.438542 49.950833 0.004
GW 103 9 0.0 74.92625 49.950833 0.0 99.901667 49.950833 0.004
GW 104 9 0.0 112.389375 49.950833 0.0 137.364792 49.950833 0.004
GW 105 9 0.0 0.0 74.92625 0.0 24.975417 74.92625 0.004
GW 106 9 0.0 37.463125 74.92625 0.0 62.438542 74.92625 0.004
GW 107 9 0.0 74.92625 74.92625 0.0 99.901667 74.92625 0.004
GW 108 9 0.0 112.389375 74.92625 0.0 137.364792 74.92625 0.004
GW 109 9 0.0 0.0 99.901667 0.0 24.975417 99.901667 0.004
GW 110 9 0.0 37.463125 99.901667 0.0 62.438542 99.901667 0.004
GW 111 9 0.0 74.92625 99.901667 0.0 99.901667 99.901667 0.004
GW 112 9 0.0 112.389375 99.901667 0.0 137.364792 99.901667 0.004
GW 113 9 0.0 0.0 124.877083 0.0 24.975417 124.877083 0.004
GW 114 9 0.0 37.463125 124.877083 0.0 62.438542 124.877083 0.004
GW 115 9 0.0 74.92625 124.877083 0.0 99.901667 124.877083 0.004
GW 116 9 0.0 112.389375 124.877083 0.0 137.364792 124.877083 0.004
GW 501 9 -12.49 0.0 49.950833 -12.49 24.975417 49.950833 0.004
GW 502 9 -12.49 37.465417 49.950833 -12.49 62.440833 49.950833 0.004
GW 503 9 -12.49 74.930833 49.950833 -12.49 99.90625 49.950833 0.004
GW 504 9 -12.49 112.39625 49.950833 -12.49 137.371667 49.950833 0.004
GW 505 9 -12.49 0.0 74.930833 -12.49 24.975417 74.930833 0.004
GW 506 9 -12.49 37.465417 74.930833 -12.49 62.440833 74.930833 0.004
GW 507 9 -12.49 74.930833 74.930833 -12.49 99.90625 74.930833 0.004
GW 508 9 -12.49 112.39625 74.930833 -12.49 137.371667 74.930833 0.004
GW 509 9 -12.49 0.0 99.910833 -12.49 24.975417 99.910833 0.004
GW 510 9 -12.49 37.465417 99.910833 -12.49 62.440833 99.910833 0.004
GW 511 9 -12.49 74.930833 99.910833 -12.49 99.90625 99.910833 0.004
GW 512 9 -12.49 112.39625 99.910833 -12.49 137.371667 99.910833 0.004
GW 513 9 -12.49 0.0 124.890833 -12.49 24.975417 124.890833 0.004
GW 514 9 -12.49 37.465417 124.890833 -12.49 62.440833 124.890833 0.004
GW 515 9 -12.49 74.930833 124.890833 -12.49 99.90625 124.890833 0.004
GW 516 9 -12.49 112.39625 124.890833 -12.49 137.371667 124.890833 0.004
GE 1
EK
TL 501 9 506 1 -50
TL 502 1 505 9 -50
TL 503 9 508 1 -50
TL 504 1 507 9 -50
TL 505 9 510 1 -50
TL 506 1 509 9 -50
TL 507 9 512 1 -50
TL 508 1 511 9 -50
TL 509 9 514 1 -50
TL 510 1 513 9 -50
TL 511 9 516 1 -50
TL 512 1 515 9 -50
TL 101 9 102 1 -50 12
TL 101 9 103 9 -50 12
TL 101 9 104 1 -50 12
TL 101 9 105 9 -50 12
TL 101 9 106 1 -50 12
TL 101 9 107 9 -50 12
TL 101 9 108 1 -50 12
TL 101 9 109 9 -50 12
TL 101 9 110 1 -50 12
TL 101 9 111 9 -50 12
TL 101 9 112 1 -50 12
TL 101 9 113 9 -50 12
TL 101 9 114 1 -50 12
TL 101 9 115 9 -50 12
TL 101 9 116 1 -50 12
LD 5 0 0 0 3.8E7 0
EX 0 101 9 0 2 0
GN 2 0 0 0 13 0.005
FR 0 1 0 0 6.0 0
RP 0 91 360 1001 0. 0. 1. 1.
