CM Curtain Antenna with Tuned Dipole Reflector ([618] Edge-fed at 13.0 MHz - Tuned Dipole Reflector) -- EHRS-4-4-1.0
CM - - - created by 'The I.T.S. S.A.G. ver 0.80' on Mon Sep 23 09:37:25 2013
CM  - Wires 101-199 = Array Elements
CM  - Wires 501-599 = Tuned Array Elements
CE
GW 101 9 0.0 0.0 23.054231 0.0 11.527115 23.054231 0.004
GW 102 9 0.0 17.290673 23.054231 0.0 28.817788 23.054231 0.004
GW 103 9 0.0 34.581346 23.054231 0.0 46.108462 23.054231 0.004
GW 104 9 0.0 51.872019 23.054231 0.0 63.399135 23.054231 0.004
GW 105 9 0.0 0.0 34.581346 0.0 11.527115 34.581346 0.004
GW 106 9 0.0 17.290673 34.581346 0.0 28.817788 34.581346 0.004
GW 107 9 0.0 34.581346 34.581346 0.0 46.108462 34.581346 0.004
GW 108 9 0.0 51.872019 34.581346 0.0 63.399135 34.581346 0.004
GW 109 9 0.0 0.0 46.108462 0.0 11.527115 46.108462 0.004
GW 110 9 0.0 17.290673 46.108462 0.0 28.817788 46.108462 0.004
GW 111 9 0.0 34.581346 46.108462 0.0 46.108462 46.108462 0.004
GW 112 9 0.0 51.872019 46.108462 0.0 63.399135 46.108462 0.004
GW 113 9 0.0 0.0 57.635577 0.0 11.527115 57.635577 0.004
GW 114 9 0.0 17.290673 57.635577 0.0 28.817788 57.635577 0.004
GW 115 9 0.0 34.581346 57.635577 0.0 46.108462 57.635577 0.004
GW 116 9 0.0 51.872019 57.635577 0.0 63.399135 57.635577 0.004
GW 501 9 -5.76 0.0 23.054231 -5.76 11.527115 23.054231 0.004
GW 502 9 -5.76 17.287115 23.054231 -5.76 28.814231 23.054231 0.004
GW 503 9 -5.76 34.574231 23.054231 -5.76 46.101346 23.054231 0.004
GW 504 9 -5.76 51.861346 23.054231 -5.76 63.388462 23.054231 0.004
GW 505 9 -5.76 0.0 34.584231 -5.76 11.527115 34.584231 0.004
GW 506 9 -5.76 17.287115 34.584231 -5.76 28.814231 34.584231 0.004
GW 507 9 -5.76 34.574231 34.584231 -5.76 46.101346 34.584231 0.004
GW 508 9 -5.76 51.861346 34.584231 -5.76 63.388462 34.584231 0.004
GW 509 9 -5.76 0.0 46.114231 -5.76 11.527115 46.114231 0.004
GW 510 9 -5.76 17.287115 46.114231 -5.76 28.814231 46.114231 0.004
GW 511 9 -5.76 34.574231 46.114231 -5.76 46.101346 46.114231 0.004
GW 512 9 -5.76 51.861346 46.114231 -5.76 63.388462 46.114231 0.004
GW 513 9 -5.76 0.0 57.644231 -5.76 11.527115 57.644231 0.004
GW 514 9 -5.76 17.287115 57.644231 -5.76 28.814231 57.644231 0.004
GW 515 9 -5.76 34.574231 57.644231 -5.76 46.101346 57.644231 0.004
GW 516 9 -5.76 51.861346 57.644231 -5.76 63.388462 57.644231 0.004
GE 1
EK
TL 501 9 506 1 -50
TL 502 1 505 9 -50
TL 503 9 508 1 -50
TL 504 1 507 9 -50
TL 505 9 510 1 -50
TL 506 1 509 9 -50
TL 507 9 512 1 -50
TL 508 1 511 9 -50
TL 509 9 514 1 -50
TL 510 1 513 9 -50
TL 511 9 516 1 -50
TL 512 1 515 9 -50
TL 101 9 102 1 -50 12
TL 101 9 103 9 -50 12
TL 101 9 104 1 -50 12
TL 101 9 105 9 -50 12
TL 101 9 106 1 -50 12
TL 101 9 107 9 -50 12
TL 101 9 108 1 -50 12
TL 101 9 109 9 -50 12
TL 101 9 110 1 -50 12
TL 101 9 111 9 -50 12
TL 101 9 112 1 -50 12
TL 101 9 113 9 -50 12
TL 101 9 114 1 -50 12
TL 101 9 115 9 -50 12
TL 101 9 116 1 -50 12
LD 5 0 0 0 3.8E7 0
EX 0 101 9 0 2 0
GN 2 0 0 0 13 0.005
FR 0 1 0 0 13.0 0
RP 0 91 360 1001 0. 0. 1. 1.
