CM Curtain Antenna with Tuned Dipole Reflector ([618] Edge-fed at 8.0 MHz - Tuned Dipole Reflector) -- EHRS-4-4-1.0
CM - - - created by 'The I.T.S. S.A.G. ver 0.80' on Mon Sep 23 09:37:25 2013
CM  - Wires 101-199 = Array Elements
CM  - Wires 501-599 = Tuned Array Elements
CE
GW 101 9 0.0 0.0 37.463125 0.0 18.731562 37.463125 0.004
GW 102 9 0.0 28.097344 37.463125 0.0 46.828906 37.463125 0.004
GW 103 9 0.0 56.194688 37.463125 0.0 74.92625 37.463125 0.004
GW 104 9 0.0 84.292031 37.463125 0.0 103.023594 37.463125 0.004
GW 105 9 0.0 0.0 56.194688 0.0 18.731562 56.194688 0.004
GW 106 9 0.0 28.097344 56.194688 0.0 46.828906 56.194688 0.004
GW 107 9 0.0 56.194688 56.194688 0.0 74.92625 56.194688 0.004
GW 108 9 0.0 84.292031 56.194688 0.0 103.023594 56.194688 0.004
GW 109 9 0.0 0.0 74.92625 0.0 18.731562 74.92625 0.004
GW 110 9 0.0 28.097344 74.92625 0.0 46.828906 74.92625 0.004
GW 111 9 0.0 56.194688 74.92625 0.0 74.92625 74.92625 0.004
GW 112 9 0.0 84.292031 74.92625 0.0 103.023594 74.92625 0.004
GW 113 9 0.0 0.0 93.657813 0.0 18.731562 93.657813 0.004
GW 114 9 0.0 28.097344 93.657813 0.0 46.828906 93.657813 0.004
GW 115 9 0.0 56.194688 93.657813 0.0 74.92625 93.657813 0.004
GW 116 9 0.0 84.292031 93.657813 0.0 103.023594 93.657813 0.004
GW 501 9 -9.37 0.0 37.463125 -9.37 18.731562 37.463125 0.004
GW 502 9 -9.37 28.101563 37.463125 -9.37 46.833125 37.463125 0.004
GW 503 9 -9.37 56.203125 37.463125 -9.37 74.934687 37.463125 0.004
GW 504 9 -9.37 84.304688 37.463125 -9.37 103.03625 37.463125 0.004
GW 505 9 -9.37 0.0 56.193125 -9.37 18.731562 56.193125 0.004
GW 506 9 -9.37 28.101563 56.193125 -9.37 46.833125 56.193125 0.004
GW 507 9 -9.37 56.203125 56.193125 -9.37 74.934687 56.193125 0.004
GW 508 9 -9.37 84.304688 56.193125 -9.37 103.03625 56.193125 0.004
GW 509 9 -9.37 0.0 74.923125 -9.37 18.731562 74.923125 0.004
GW 510 9 -9.37 28.101563 74.923125 -9.37 46.833125 74.923125 0.004
GW 511 9 -9.37 56.203125 74.923125 -9.37 74.934687 74.923125 0.004
GW 512 9 -9.37 84.304688 74.923125 -9.37 103.03625 74.923125 0.004
GW 513 9 -9.37 0.0 93.653125 -9.37 18.731562 93.653125 0.004
GW 514 9 -9.37 28.101563 93.653125 -9.37 46.833125 93.653125 0.004
GW 515 9 -9.37 56.203125 93.653125 -9.37 74.934687 93.653125 0.004
GW 516 9 -9.37 84.304688 93.653125 -9.37 103.03625 93.653125 0.004
GE 1
EK
TL 501 9 506 1 -50
TL 502 1 505 9 -50
TL 503 9 508 1 -50
TL 504 1 507 9 -50
TL 505 9 510 1 -50
TL 506 1 509 9 -50
TL 507 9 512 1 -50
TL 508 1 511 9 -50
TL 509 9 514 1 -50
TL 510 1 513 9 -50
TL 511 9 516 1 -50
TL 512 1 515 9 -50
TL 101 9 102 1 -50 12
TL 101 9 103 9 -50 12
TL 101 9 104 1 -50 12
TL 101 9 105 9 -50 12
TL 101 9 106 1 -50 12
TL 101 9 107 9 -50 12
TL 101 9 108 1 -50 12
TL 101 9 109 9 -50 12
TL 101 9 110 1 -50 12
TL 101 9 111 9 -50 12
TL 101 9 112 1 -50 12
TL 101 9 113 9 -50 12
TL 101 9 114 1 -50 12
TL 101 9 115 9 -50 12
TL 101 9 116 1 -50 12
LD 5 0 0 0 3.8E7 0
EX 0 101 9 0 2 0
GN 2 0 0 0 13 0.005
FR 0 1 0 0 8.0 0
RP 0 91 360 1001 0. 0. 1. 1.
