CM Curtain Antenna with Tuned Dipole Reflector ([616] Edge-fed at 12.0 MHz - Tuned Dipole Reflector) -- EHRS-4-4-0.5
CM - - - created by 'The I.T.S. S.A.G. ver 0.80' on Mon Sep 23 09:37:25 2013
CM  - Wires 101-199 = Array Elements
CM  - Wires 501-599 = Tuned Array Elements
CE
GW 101 9 0.0 0.0 12.487708 0.0 12.487708 12.487708 0.004
GW 102 9 0.0 18.731562 12.487708 0.0 31.219271 12.487708 0.004
GW 103 9 0.0 37.463125 12.487708 0.0 49.950833 12.487708 0.004
GW 104 9 0.0 56.194688 12.487708 0.0 68.682396 12.487708 0.004
GW 105 9 0.0 0.0 24.975417 0.0 12.487708 24.975417 0.004
GW 106 9 0.0 18.731562 24.975417 0.0 31.219271 24.975417 0.004
GW 107 9 0.0 37.463125 24.975417 0.0 49.950833 24.975417 0.004
GW 108 9 0.0 56.194688 24.975417 0.0 68.682396 24.975417 0.004
GW 109 9 0.0 0.0 37.463125 0.0 12.487708 37.463125 0.004
GW 110 9 0.0 18.731562 37.463125 0.0 31.219271 37.463125 0.004
GW 111 9 0.0 37.463125 37.463125 0.0 49.950833 37.463125 0.004
GW 112 9 0.0 56.194688 37.463125 0.0 68.682396 37.463125 0.004
GW 113 9 0.0 0.0 49.950833 0.0 12.487708 49.950833 0.004
GW 114 9 0.0 18.731562 49.950833 0.0 31.219271 49.950833 0.004
GW 115 9 0.0 37.463125 49.950833 0.0 49.950833 49.950833 0.004
GW 116 9 0.0 56.194688 49.950833 0.0 68.682396 49.950833 0.004
GW 501 9 -6.24 0.0 12.487708 -6.24 12.487708 12.487708 0.004
GW 502 9 -6.24 18.727708 12.487708 -6.24 31.215417 12.487708 0.004
GW 503 9 -6.24 37.455417 12.487708 -6.24 49.943125 12.487708 0.004
GW 504 9 -6.24 56.183125 12.487708 -6.24 68.670833 12.487708 0.004
GW 505 9 -6.24 0.0 24.977708 -6.24 12.487708 24.977708 0.004
GW 506 9 -6.24 18.727708 24.977708 -6.24 31.215417 24.977708 0.004
GW 507 9 -6.24 37.455417 24.977708 -6.24 49.943125 24.977708 0.004
GW 508 9 -6.24 56.183125 24.977708 -6.24 68.670833 24.977708 0.004
GW 509 9 -6.24 0.0 37.467708 -6.24 12.487708 37.467708 0.004
GW 510 9 -6.24 18.727708 37.467708 -6.24 31.215417 37.467708 0.004
GW 511 9 -6.24 37.455417 37.467708 -6.24 49.943125 37.467708 0.004
GW 512 9 -6.24 56.183125 37.467708 -6.24 68.670833 37.467708 0.004
GW 513 9 -6.24 0.0 49.957708 -6.24 12.487708 49.957708 0.004
GW 514 9 -6.24 18.727708 49.957708 -6.24 31.215417 49.957708 0.004
GW 515 9 -6.24 37.455417 49.957708 -6.24 49.943125 49.957708 0.004
GW 516 9 -6.24 56.183125 49.957708 -6.24 68.670833 49.957708 0.004
GE 1
EK
TL 501 9 506 1 -50
TL 502 1 505 9 -50
TL 503 9 508 1 -50
TL 504 1 507 9 -50
TL 505 9 510 1 -50
TL 506 1 509 9 -50
TL 507 9 512 1 -50
TL 508 1 511 9 -50
TL 509 9 514 1 -50
TL 510 1 513 9 -50
TL 511 9 516 1 -50
TL 512 1 515 9 -50
TL 101 9 102 1 -50 12
TL 101 9 103 9 -50 12
TL 101 9 104 1 -50 12
TL 101 9 105 9 -50 12
TL 101 9 106 1 -50 12
TL 101 9 107 9 -50 12
TL 101 9 108 1 -50 12
TL 101 9 109 9 -50 12
TL 101 9 110 1 -50 12
TL 101 9 111 9 -50 12
TL 101 9 112 1 -50 12
TL 101 9 113 9 -50 12
TL 101 9 114 1 -50 12
TL 101 9 115 9 -50 12
TL 101 9 116 1 -50 12
LD 5 0 0 0 3.8E7 0
EX 0 101 9 0 2 0
GN 2 0 0 0 13 0.005
FR 0 1 0 0 12.0 0
RP 0 91 360 1001 0. 0. 1. 1.
