CM Curtain Antenna with Tuned Dipole Reflector ([618] Edge-fed at 23.0 MHz - Tuned Dipole Reflector) -- EHRS-4-4-1.0
CM - - - created by 'The I.T.S. S.A.G. ver 0.80' on Mon Sep 23 09:37:25 2013
CM  - Wires 101-199 = Array Elements
CM  - Wires 501-599 = Tuned Array Elements
CE
GW 101 9 0.0 0.0 13.030652 0.0 6.515326 13.030652 0.004
GW 102 9 0.0 9.772989 13.030652 0.0 16.288315 13.030652 0.004
GW 103 9 0.0 19.545978 13.030652 0.0 26.061304 13.030652 0.004
GW 104 9 0.0 29.318967 13.030652 0.0 35.834293 13.030652 0.004
GW 105 9 0.0 0.0 19.545978 0.0 6.515326 19.545978 0.004
GW 106 9 0.0 9.772989 19.545978 0.0 16.288315 19.545978 0.004
GW 107 9 0.0 19.545978 19.545978 0.0 26.061304 19.545978 0.004
GW 108 9 0.0 29.318967 19.545978 0.0 35.834293 19.545978 0.004
GW 109 9 0.0 0.0 26.061304 0.0 6.515326 26.061304 0.004
GW 110 9 0.0 9.772989 26.061304 0.0 16.288315 26.061304 0.004
GW 111 9 0.0 19.545978 26.061304 0.0 26.061304 26.061304 0.004
GW 112 9 0.0 29.318967 26.061304 0.0 35.834293 26.061304 0.004
GW 113 9 0.0 0.0 32.57663 0.0 6.515326 32.57663 0.004
GW 114 9 0.0 9.772989 32.57663 0.0 16.288315 32.57663 0.004
GW 115 9 0.0 19.545978 32.57663 0.0 26.061304 32.57663 0.004
GW 116 9 0.0 29.318967 32.57663 0.0 35.834293 32.57663 0.004
GW 501 9 -3.26 0.0 13.030652 -3.26 6.515326 13.030652 0.004
GW 502 9 -3.26 9.775326 13.030652 -3.26 16.290652 13.030652 0.004
GW 503 9 -3.26 19.550652 13.030652 -3.26 26.065978 13.030652 0.004
GW 504 9 -3.26 29.325978 13.030652 -3.26 35.841304 13.030652 0.004
GW 505 9 -3.26 0.0 19.550652 -3.26 6.515326 19.550652 0.004
GW 506 9 -3.26 9.775326 19.550652 -3.26 16.290652 19.550652 0.004
GW 507 9 -3.26 19.550652 19.550652 -3.26 26.065978 19.550652 0.004
GW 508 9 -3.26 29.325978 19.550652 -3.26 35.841304 19.550652 0.004
GW 509 9 -3.26 0.0 26.070652 -3.26 6.515326 26.070652 0.004
GW 510 9 -3.26 9.775326 26.070652 -3.26 16.290652 26.070652 0.004
GW 511 9 -3.26 19.550652 26.070652 -3.26 26.065978 26.070652 0.004
GW 512 9 -3.26 29.325978 26.070652 -3.26 35.841304 26.070652 0.004
GW 513 9 -3.26 0.0 32.590652 -3.26 6.515326 32.590652 0.004
GW 514 9 -3.26 9.775326 32.590652 -3.26 16.290652 32.590652 0.004
GW 515 9 -3.26 19.550652 32.590652 -3.26 26.065978 32.590652 0.004
GW 516 9 -3.26 29.325978 32.590652 -3.26 35.841304 32.590652 0.004
GE 1
EK
TL 501 9 506 1 -50
TL 502 1 505 9 -50
TL 503 9 508 1 -50
TL 504 1 507 9 -50
TL 505 9 510 1 -50
TL 506 1 509 9 -50
TL 507 9 512 1 -50
TL 508 1 511 9 -50
TL 509 9 514 1 -50
TL 510 1 513 9 -50
TL 511 9 516 1 -50
TL 512 1 515 9 -50
TL 101 9 102 1 -50 12
TL 101 9 103 9 -50 12
TL 101 9 104 1 -50 12
TL 101 9 105 9 -50 12
TL 101 9 106 1 -50 12
TL 101 9 107 9 -50 12
TL 101 9 108 1 -50 12
TL 101 9 109 9 -50 12
TL 101 9 110 1 -50 12
TL 101 9 111 9 -50 12
TL 101 9 112 1 -50 12
TL 101 9 113 9 -50 12
TL 101 9 114 1 -50 12
TL 101 9 115 9 -50 12
TL 101 9 116 1 -50 12
LD 5 0 0 0 3.8E7 0
EX 0 101 9 0 2 0
GN 2 0 0 0 13 0.005
FR 0 1 0 0 23.0 0
RP 0 91 360 1001 0. 0. 1. 1.
