CM Curtain Antenna with Tuned Dipole Reflector ([616] Edge-fed at 24.0 MHz - Tuned Dipole Reflector) -- EHRS-4-4-0.5
CM - - - created by 'The I.T.S. S.A.G. ver 0.80' on Mon Sep 23 09:37:25 2013
CM  - Wires 101-199 = Array Elements
CM  - Wires 501-599 = Tuned Array Elements
CE
GW 101 9 0.0 0.0 6.243854 0.0 6.243854 6.243854 0.004
GW 102 9 0.0 9.365781 6.243854 0.0 15.609635 6.243854 0.004
GW 103 9 0.0 18.731562 6.243854 0.0 24.975417 6.243854 0.004
GW 104 9 0.0 28.097344 6.243854 0.0 34.341198 6.243854 0.004
GW 105 9 0.0 0.0 12.487708 0.0 6.243854 12.487708 0.004
GW 106 9 0.0 9.365781 12.487708 0.0 15.609635 12.487708 0.004
GW 107 9 0.0 18.731562 12.487708 0.0 24.975417 12.487708 0.004
GW 108 9 0.0 28.097344 12.487708 0.0 34.341198 12.487708 0.004
GW 109 9 0.0 0.0 18.731562 0.0 6.243854 18.731562 0.004
GW 110 9 0.0 9.365781 18.731562 0.0 15.609635 18.731562 0.004
GW 111 9 0.0 18.731562 18.731562 0.0 24.975417 18.731562 0.004
GW 112 9 0.0 28.097344 18.731562 0.0 34.341198 18.731562 0.004
GW 113 9 0.0 0.0 24.975417 0.0 6.243854 24.975417 0.004
GW 114 9 0.0 9.365781 24.975417 0.0 15.609635 24.975417 0.004
GW 115 9 0.0 18.731562 24.975417 0.0 24.975417 24.975417 0.004
GW 116 9 0.0 28.097344 24.975417 0.0 34.341198 24.975417 0.004
GW 501 9 -3.12 0.0 6.243854 -3.12 6.243854 6.243854 0.004
GW 502 9 -3.12 9.363854 6.243854 -3.12 15.607708 6.243854 0.004
GW 503 9 -3.12 18.727708 6.243854 -3.12 24.971562 6.243854 0.004
GW 504 9 -3.12 28.091562 6.243854 -3.12 34.335417 6.243854 0.004
GW 505 9 -3.12 0.0 12.483854 -3.12 6.243854 12.483854 0.004
GW 506 9 -3.12 9.363854 12.483854 -3.12 15.607708 12.483854 0.004
GW 507 9 -3.12 18.727708 12.483854 -3.12 24.971562 12.483854 0.004
GW 508 9 -3.12 28.091562 12.483854 -3.12 34.335417 12.483854 0.004
GW 509 9 -3.12 0.0 18.723854 -3.12 6.243854 18.723854 0.004
GW 510 9 -3.12 9.363854 18.723854 -3.12 15.607708 18.723854 0.004
GW 511 9 -3.12 18.727708 18.723854 -3.12 24.971562 18.723854 0.004
GW 512 9 -3.12 28.091562 18.723854 -3.12 34.335417 18.723854 0.004
GW 513 9 -3.12 0.0 24.963854 -3.12 6.243854 24.963854 0.004
GW 514 9 -3.12 9.363854 24.963854 -3.12 15.607708 24.963854 0.004
GW 515 9 -3.12 18.727708 24.963854 -3.12 24.971562 24.963854 0.004
GW 516 9 -3.12 28.091562 24.963854 -3.12 34.335417 24.963854 0.004
GE 1
EK
TL 501 9 506 1 -50
TL 502 1 505 9 -50
TL 503 9 508 1 -50
TL 504 1 507 9 -50
TL 505 9 510 1 -50
TL 506 1 509 9 -50
TL 507 9 512 1 -50
TL 508 1 511 9 -50
TL 509 9 514 1 -50
TL 510 1 513 9 -50
TL 511 9 516 1 -50
TL 512 1 515 9 -50
TL 101 9 102 1 -50 12
TL 101 9 103 9 -50 12
TL 101 9 104 1 -50 12
TL 101 9 105 9 -50 12
TL 101 9 106 1 -50 12
TL 101 9 107 9 -50 12
TL 101 9 108 1 -50 12
TL 101 9 109 9 -50 12
TL 101 9 110 1 -50 12
TL 101 9 111 9 -50 12
TL 101 9 112 1 -50 12
TL 101 9 113 9 -50 12
TL 101 9 114 1 -50 12
TL 101 9 115 9 -50 12
TL 101 9 116 1 -50 12
LD 5 0 0 0 3.8E7 0
EX 0 101 9 0 2 0
GN 2 0 0 0 13 0.005
FR 0 1 0 0 24.0 0
RP 0 91 360 1001 0. 0. 1. 1.
