CM Curtain Antenna with Tuned Dipole Reflector ([616] Edge-fed at 3.0 MHz - Tuned Dipole Reflector) -- EHRS-4-4-0.5
CM - - - created by 'The I.T.S. S.A.G. ver 0.80' on Mon Sep 23 09:37:25 2013
CM  - Wires 101-199 = Array Elements
CM  - Wires 501-599 = Tuned Array Elements
CE
GW 101 9 0.0 0.0 49.950833 0.0 49.950833 49.950833 0.004
GW 102 9 0.0 74.92625 49.950833 0.0 124.877083 49.950833 0.004
GW 103 9 0.0 149.8525 49.950833 0.0 199.803333 49.950833 0.004
GW 104 9 0.0 224.77875 49.950833 0.0 274.729583 49.950833 0.004
GW 105 9 0.0 0.0 99.901667 0.0 49.950833 99.901667 0.004
GW 106 9 0.0 74.92625 99.901667 0.0 124.877083 99.901667 0.004
GW 107 9 0.0 149.8525 99.901667 0.0 199.803333 99.901667 0.004
GW 108 9 0.0 224.77875 99.901667 0.0 274.729583 99.901667 0.004
GW 109 9 0.0 0.0 149.8525 0.0 49.950833 149.8525 0.004
GW 110 9 0.0 74.92625 149.8525 0.0 124.877083 149.8525 0.004
GW 111 9 0.0 149.8525 149.8525 0.0 199.803333 149.8525 0.004
GW 112 9 0.0 224.77875 149.8525 0.0 274.729583 149.8525 0.004
GW 113 9 0.0 0.0 199.803333 0.0 49.950833 199.803333 0.004
GW 114 9 0.0 74.92625 199.803333 0.0 124.877083 199.803333 0.004
GW 115 9 0.0 149.8525 199.803333 0.0 199.803333 199.803333 0.004
GW 116 9 0.0 224.77875 199.803333 0.0 274.729583 199.803333 0.004
GW 501 9 -24.98 0.0 49.950833 -24.98 49.950833 49.950833 0.004
GW 502 9 -24.98 74.930833 49.950833 -24.98 124.881667 49.950833 0.004
GW 503 9 -24.98 149.861667 49.950833 -24.98 199.8125 49.950833 0.004
GW 504 9 -24.98 224.7925 49.950833 -24.98 274.743333 49.950833 0.004
GW 505 9 -24.98 0.0 99.900833 -24.98 49.950833 99.900833 0.004
GW 506 9 -24.98 74.930833 99.900833 -24.98 124.881667 99.900833 0.004
GW 507 9 -24.98 149.861667 99.900833 -24.98 199.8125 99.900833 0.004
GW 508 9 -24.98 224.7925 99.900833 -24.98 274.743333 99.900833 0.004
GW 509 9 -24.98 0.0 149.850833 -24.98 49.950833 149.850833 0.004
GW 510 9 -24.98 74.930833 149.850833 -24.98 124.881667 149.850833 0.004
GW 511 9 -24.98 149.861667 149.850833 -24.98 199.8125 149.850833 0.004
GW 512 9 -24.98 224.7925 149.850833 -24.98 274.743333 149.850833 0.004
GW 513 9 -24.98 0.0 199.800833 -24.98 49.950833 199.800833 0.004
GW 514 9 -24.98 74.930833 199.800833 -24.98 124.881667 199.800833 0.004
GW 515 9 -24.98 149.861667 199.800833 -24.98 199.8125 199.800833 0.004
GW 516 9 -24.98 224.7925 199.800833 -24.98 274.743333 199.800833 0.004
GE 1
EK
TL 501 9 506 1 -50
TL 502 1 505 9 -50
TL 503 9 508 1 -50
TL 504 1 507 9 -50
TL 505 9 510 1 -50
TL 506 1 509 9 -50
TL 507 9 512 1 -50
TL 508 1 511 9 -50
TL 509 9 514 1 -50
TL 510 1 513 9 -50
TL 511 9 516 1 -50
TL 512 1 515 9 -50
TL 101 9 102 1 -50 12
TL 101 9 103 9 -50 12
TL 101 9 104 1 -50 12
TL 101 9 105 9 -50 12
TL 101 9 106 1 -50 12
TL 101 9 107 9 -50 12
TL 101 9 108 1 -50 12
TL 101 9 109 9 -50 12
TL 101 9 110 1 -50 12
TL 101 9 111 9 -50 12
TL 101 9 112 1 -50 12
TL 101 9 113 9 -50 12
TL 101 9 114 1 -50 12
TL 101 9 115 9 -50 12
TL 101 9 116 1 -50 12
LD 5 0 0 0 3.8E7 0
EX 0 101 9 0 2 0
GN 2 0 0 0 13 0.005
FR 0 1 0 0 3.0 0
RP 0 91 360 1001 0. 0. 1. 1.
