CM Curtain Antenna with Tuned Dipole Reflector ([618] Edge-fed at 21.0 MHz - Tuned Dipole Reflector) -- EHRS-4-4-1.0
CM - - - created by 'The I.T.S. S.A.G. ver 0.80' on Mon Sep 23 09:37:25 2013
CM  - Wires 101-199 = Array Elements
CM  - Wires 501-599 = Tuned Array Elements
CE
GW 101 9 0.0 0.0 14.271667 0.0 7.135833 14.271667 0.004
GW 102 9 0.0 10.70375 14.271667 0.0 17.839583 14.271667 0.004
GW 103 9 0.0 21.4075 14.271667 0.0 28.543333 14.271667 0.004
GW 104 9 0.0 32.11125 14.271667 0.0 39.247083 14.271667 0.004
GW 105 9 0.0 0.0 21.4075 0.0 7.135833 21.4075 0.004
GW 106 9 0.0 10.70375 21.4075 0.0 17.839583 21.4075 0.004
GW 107 9 0.0 21.4075 21.4075 0.0 28.543333 21.4075 0.004
GW 108 9 0.0 32.11125 21.4075 0.0 39.247083 21.4075 0.004
GW 109 9 0.0 0.0 28.543333 0.0 7.135833 28.543333 0.004
GW 110 9 0.0 10.70375 28.543333 0.0 17.839583 28.543333 0.004
GW 111 9 0.0 21.4075 28.543333 0.0 28.543333 28.543333 0.004
GW 112 9 0.0 32.11125 28.543333 0.0 39.247083 28.543333 0.004
GW 113 9 0.0 0.0 35.679167 0.0 7.135833 35.679167 0.004
GW 114 9 0.0 10.70375 35.679167 0.0 17.839583 35.679167 0.004
GW 115 9 0.0 21.4075 35.679167 0.0 28.543333 35.679167 0.004
GW 116 9 0.0 32.11125 35.679167 0.0 39.247083 35.679167 0.004
GW 501 9 -3.57 0.0 14.271667 -3.57 7.135833 14.271667 0.004
GW 502 9 -3.57 10.705833 14.271667 -3.57 17.841667 14.271667 0.004
GW 503 9 -3.57 21.411667 14.271667 -3.57 28.5475 14.271667 0.004
GW 504 9 -3.57 32.1175 14.271667 -3.57 39.253333 14.271667 0.004
GW 505 9 -3.57 0.0 21.411667 -3.57 7.135833 21.411667 0.004
GW 506 9 -3.57 10.705833 21.411667 -3.57 17.841667 21.411667 0.004
GW 507 9 -3.57 21.411667 21.411667 -3.57 28.5475 21.411667 0.004
GW 508 9 -3.57 32.1175 21.411667 -3.57 39.253333 21.411667 0.004
GW 509 9 -3.57 0.0 28.551667 -3.57 7.135833 28.551667 0.004
GW 510 9 -3.57 10.705833 28.551667 -3.57 17.841667 28.551667 0.004
GW 511 9 -3.57 21.411667 28.551667 -3.57 28.5475 28.551667 0.004
GW 512 9 -3.57 32.1175 28.551667 -3.57 39.253333 28.551667 0.004
GW 513 9 -3.57 0.0 35.691667 -3.57 7.135833 35.691667 0.004
GW 514 9 -3.57 10.705833 35.691667 -3.57 17.841667 35.691667 0.004
GW 515 9 -3.57 21.411667 35.691667 -3.57 28.5475 35.691667 0.004
GW 516 9 -3.57 32.1175 35.691667 -3.57 39.253333 35.691667 0.004
GE 1
EK
TL 501 9 506 1 -50
TL 502 1 505 9 -50
TL 503 9 508 1 -50
TL 504 1 507 9 -50
TL 505 9 510 1 -50
TL 506 1 509 9 -50
TL 507 9 512 1 -50
TL 508 1 511 9 -50
TL 509 9 514 1 -50
TL 510 1 513 9 -50
TL 511 9 516 1 -50
TL 512 1 515 9 -50
TL 101 9 102 1 -50 12
TL 101 9 103 9 -50 12
TL 101 9 104 1 -50 12
TL 101 9 105 9 -50 12
TL 101 9 106 1 -50 12
TL 101 9 107 9 -50 12
TL 101 9 108 1 -50 12
TL 101 9 109 9 -50 12
TL 101 9 110 1 -50 12
TL 101 9 111 9 -50 12
TL 101 9 112 1 -50 12
TL 101 9 113 9 -50 12
TL 101 9 114 1 -50 12
TL 101 9 115 9 -50 12
TL 101 9 116 1 -50 12
LD 5 0 0 0 3.8E7 0
EX 0 101 9 0 2 0
GN 2 0 0 0 13 0.005
FR 0 1 0 0 21.0 0
RP 0 91 360 1001 0. 0. 1. 1.
