CM Curtain Antenna with Tuned Dipole Reflector ([618] Edge-fed at 15.0 MHz - Tuned Dipole Reflector) -- EHRS-4-4-1.0
CM - - - created by 'The I.T.S. S.A.G. ver 0.80' on Mon Sep 23 09:37:25 2013
CM  - Wires 101-199 = Array Elements
CM  - Wires 501-599 = Tuned Array Elements
CE
GW 101 9 0.0 0.0 19.980333 0.0 9.990167 19.980333 0.004
GW 102 9 0.0 14.98525 19.980333 0.0 24.975417 19.980333 0.004
GW 103 9 0.0 29.9705 19.980333 0.0 39.960667 19.980333 0.004
GW 104 9 0.0 44.95575 19.980333 0.0 54.945917 19.980333 0.004
GW 105 9 0.0 0.0 29.9705 0.0 9.990167 29.9705 0.004
GW 106 9 0.0 14.98525 29.9705 0.0 24.975417 29.9705 0.004
GW 107 9 0.0 29.9705 29.9705 0.0 39.960667 29.9705 0.004
GW 108 9 0.0 44.95575 29.9705 0.0 54.945917 29.9705 0.004
GW 109 9 0.0 0.0 39.960667 0.0 9.990167 39.960667 0.004
GW 110 9 0.0 14.98525 39.960667 0.0 24.975417 39.960667 0.004
GW 111 9 0.0 29.9705 39.960667 0.0 39.960667 39.960667 0.004
GW 112 9 0.0 44.95575 39.960667 0.0 54.945917 39.960667 0.004
GW 113 9 0.0 0.0 49.950833 0.0 9.990167 49.950833 0.004
GW 114 9 0.0 14.98525 49.950833 0.0 24.975417 49.950833 0.004
GW 115 9 0.0 29.9705 49.950833 0.0 39.960667 49.950833 0.004
GW 116 9 0.0 44.95575 49.950833 0.0 54.945917 49.950833 0.004
GW 501 9 -5.0 0.0 19.980333 -5.0 9.990167 19.980333 0.004
GW 502 9 -5.0 14.990167 19.980333 -5.0 24.980333 19.980333 0.004
GW 503 9 -5.0 29.980333 19.980333 -5.0 39.9705 19.980333 0.004
GW 504 9 -5.0 44.9705 19.980333 -5.0 54.960667 19.980333 0.004
GW 505 9 -5.0 0.0 29.970333 -5.0 9.990167 29.970333 0.004
GW 506 9 -5.0 14.990167 29.970333 -5.0 24.980333 29.970333 0.004
GW 507 9 -5.0 29.980333 29.970333 -5.0 39.9705 29.970333 0.004
GW 508 9 -5.0 44.9705 29.970333 -5.0 54.960667 29.970333 0.004
GW 509 9 -5.0 0.0 39.960333 -5.0 9.990167 39.960333 0.004
GW 510 9 -5.0 14.990167 39.960333 -5.0 24.980333 39.960333 0.004
GW 511 9 -5.0 29.980333 39.960333 -5.0 39.9705 39.960333 0.004
GW 512 9 -5.0 44.9705 39.960333 -5.0 54.960667 39.960333 0.004
GW 513 9 -5.0 0.0 49.950333 -5.0 9.990167 49.950333 0.004
GW 514 9 -5.0 14.990167 49.950333 -5.0 24.980333 49.950333 0.004
GW 515 9 -5.0 29.980333 49.950333 -5.0 39.9705 49.950333 0.004
GW 516 9 -5.0 44.9705 49.950333 -5.0 54.960667 49.950333 0.004
GE 1
EK
TL 501 9 506 1 -50
TL 502 1 505 9 -50
TL 503 9 508 1 -50
TL 504 1 507 9 -50
TL 505 9 510 1 -50
TL 506 1 509 9 -50
TL 507 9 512 1 -50
TL 508 1 511 9 -50
TL 509 9 514 1 -50
TL 510 1 513 9 -50
TL 511 9 516 1 -50
TL 512 1 515 9 -50
TL 101 9 102 1 -50 12
TL 101 9 103 9 -50 12
TL 101 9 104 1 -50 12
TL 101 9 105 9 -50 12
TL 101 9 106 1 -50 12
TL 101 9 107 9 -50 12
TL 101 9 108 1 -50 12
TL 101 9 109 9 -50 12
TL 101 9 110 1 -50 12
TL 101 9 111 9 -50 12
TL 101 9 112 1 -50 12
TL 101 9 113 9 -50 12
TL 101 9 114 1 -50 12
TL 101 9 115 9 -50 12
TL 101 9 116 1 -50 12
LD 5 0 0 0 3.8E7 0
EX 0 101 9 0 2 0
GN 2 0 0 0 13 0.005
FR 0 1 0 0 15.0 0
RP 0 91 360 1001 0. 0. 1. 1.
