CM Curtain Antenna with Tuned Dipole Reflector ([616] Edge-fed at 26.0 MHz - Tuned Dipole Reflector) -- EHRS-4-4-0.5
CM - - - created by 'The I.T.S. S.A.G. ver 0.80' on Mon Sep 23 09:37:25 2013
CM  - Wires 101-199 = Array Elements
CM  - Wires 501-599 = Tuned Array Elements
CE
GW 101 9 0.0 0.0 5.763558 0.0 5.763558 5.763558 0.004
GW 102 9 0.0 8.645337 5.763558 0.0 14.408894 5.763558 0.004
GW 103 9 0.0 17.290673 5.763558 0.0 23.054231 5.763558 0.004
GW 104 9 0.0 25.93601 5.763558 0.0 31.699567 5.763558 0.004
GW 105 9 0.0 0.0 11.527115 0.0 5.763558 11.527115 0.004
GW 106 9 0.0 8.645337 11.527115 0.0 14.408894 11.527115 0.004
GW 107 9 0.0 17.290673 11.527115 0.0 23.054231 11.527115 0.004
GW 108 9 0.0 25.93601 11.527115 0.0 31.699567 11.527115 0.004
GW 109 9 0.0 0.0 17.290673 0.0 5.763558 17.290673 0.004
GW 110 9 0.0 8.645337 17.290673 0.0 14.408894 17.290673 0.004
GW 111 9 0.0 17.290673 17.290673 0.0 23.054231 17.290673 0.004
GW 112 9 0.0 25.93601 17.290673 0.0 31.699567 17.290673 0.004
GW 113 9 0.0 0.0 23.054231 0.0 5.763558 23.054231 0.004
GW 114 9 0.0 8.645337 23.054231 0.0 14.408894 23.054231 0.004
GW 115 9 0.0 17.290673 23.054231 0.0 23.054231 23.054231 0.004
GW 116 9 0.0 25.93601 23.054231 0.0 31.699567 23.054231 0.004
GW 501 9 -2.88 0.0 5.763558 -2.88 5.763558 5.763558 0.004
GW 502 9 -2.88 8.643558 5.763558 -2.88 14.407115 5.763558 0.004
GW 503 9 -2.88 17.287115 5.763558 -2.88 23.050673 5.763558 0.004
GW 504 9 -2.88 25.930673 5.763558 -2.88 31.694231 5.763558 0.004
GW 505 9 -2.88 0.0 11.523558 -2.88 5.763558 11.523558 0.004
GW 506 9 -2.88 8.643558 11.523558 -2.88 14.407115 11.523558 0.004
GW 507 9 -2.88 17.287115 11.523558 -2.88 23.050673 11.523558 0.004
GW 508 9 -2.88 25.930673 11.523558 -2.88 31.694231 11.523558 0.004
GW 509 9 -2.88 0.0 17.283558 -2.88 5.763558 17.283558 0.004
GW 510 9 -2.88 8.643558 17.283558 -2.88 14.407115 17.283558 0.004
GW 511 9 -2.88 17.287115 17.283558 -2.88 23.050673 17.283558 0.004
GW 512 9 -2.88 25.930673 17.283558 -2.88 31.694231 17.283558 0.004
GW 513 9 -2.88 0.0 23.043558 -2.88 5.763558 23.043558 0.004
GW 514 9 -2.88 8.643558 23.043558 -2.88 14.407115 23.043558 0.004
GW 515 9 -2.88 17.287115 23.043558 -2.88 23.050673 23.043558 0.004
GW 516 9 -2.88 25.930673 23.043558 -2.88 31.694231 23.043558 0.004
GE 1
EK
TL 501 9 506 1 -50
TL 502 1 505 9 -50
TL 503 9 508 1 -50
TL 504 1 507 9 -50
TL 505 9 510 1 -50
TL 506 1 509 9 -50
TL 507 9 512 1 -50
TL 508 1 511 9 -50
TL 509 9 514 1 -50
TL 510 1 513 9 -50
TL 511 9 516 1 -50
TL 512 1 515 9 -50
TL 101 9 102 1 -50 12
TL 101 9 103 9 -50 12
TL 101 9 104 1 -50 12
TL 101 9 105 9 -50 12
TL 101 9 106 1 -50 12
TL 101 9 107 9 -50 12
TL 101 9 108 1 -50 12
TL 101 9 109 9 -50 12
TL 101 9 110 1 -50 12
TL 101 9 111 9 -50 12
TL 101 9 112 1 -50 12
TL 101 9 113 9 -50 12
TL 101 9 114 1 -50 12
TL 101 9 115 9 -50 12
TL 101 9 116 1 -50 12
LD 5 0 0 0 3.8E7 0
EX 0 101 9 0 2 0
GN 2 0 0 0 13 0.005
FR 0 1 0 0 26.0 0
RP 0 91 360 1001 0. 0. 1. 1.
