CM Curtain Antenna with Tuned Dipole Reflector ([616] Edge-fed at 22.0 MHz - Tuned Dipole Reflector) -- EHRS-4-4-0.5
CM - - - created by 'The I.T.S. S.A.G. ver 0.80' on Mon Sep 23 09:37:25 2013
CM  - Wires 101-199 = Array Elements
CM  - Wires 501-599 = Tuned Array Elements
CE
GW 101 9 0.0 0.0 6.811477 0.0 6.811477 6.811477 0.004
GW 102 9 0.0 10.217216 6.811477 0.0 17.028693 6.811477 0.004
GW 103 9 0.0 20.434432 6.811477 0.0 27.245909 6.811477 0.004
GW 104 9 0.0 30.651648 6.811477 0.0 37.463125 6.811477 0.004
GW 105 9 0.0 0.0 13.622955 0.0 6.811477 13.622955 0.004
GW 106 9 0.0 10.217216 13.622955 0.0 17.028693 13.622955 0.004
GW 107 9 0.0 20.434432 13.622955 0.0 27.245909 13.622955 0.004
GW 108 9 0.0 30.651648 13.622955 0.0 37.463125 13.622955 0.004
GW 109 9 0.0 0.0 20.434432 0.0 6.811477 20.434432 0.004
GW 110 9 0.0 10.217216 20.434432 0.0 17.028693 20.434432 0.004
GW 111 9 0.0 20.434432 20.434432 0.0 27.245909 20.434432 0.004
GW 112 9 0.0 30.651648 20.434432 0.0 37.463125 20.434432 0.004
GW 113 9 0.0 0.0 27.245909 0.0 6.811477 27.245909 0.004
GW 114 9 0.0 10.217216 27.245909 0.0 17.028693 27.245909 0.004
GW 115 9 0.0 20.434432 27.245909 0.0 27.245909 27.245909 0.004
GW 116 9 0.0 30.651648 27.245909 0.0 37.463125 27.245909 0.004
GW 501 9 -3.41 0.0 6.811477 -3.41 6.811477 6.811477 0.004
GW 502 9 -3.41 10.221477 6.811477 -3.41 17.032955 6.811477 0.004
GW 503 9 -3.41 20.442955 6.811477 -3.41 27.254432 6.811477 0.004
GW 504 9 -3.41 30.664432 6.811477 -3.41 37.475909 6.811477 0.004
GW 505 9 -3.41 0.0 13.621477 -3.41 6.811477 13.621477 0.004
GW 506 9 -3.41 10.221477 13.621477 -3.41 17.032955 13.621477 0.004
GW 507 9 -3.41 20.442955 13.621477 -3.41 27.254432 13.621477 0.004
GW 508 9 -3.41 30.664432 13.621477 -3.41 37.475909 13.621477 0.004
GW 509 9 -3.41 0.0 20.431477 -3.41 6.811477 20.431477 0.004
GW 510 9 -3.41 10.221477 20.431477 -3.41 17.032955 20.431477 0.004
GW 511 9 -3.41 20.442955 20.431477 -3.41 27.254432 20.431477 0.004
GW 512 9 -3.41 30.664432 20.431477 -3.41 37.475909 20.431477 0.004
GW 513 9 -3.41 0.0 27.241477 -3.41 6.811477 27.241477 0.004
GW 514 9 -3.41 10.221477 27.241477 -3.41 17.032955 27.241477 0.004
GW 515 9 -3.41 20.442955 27.241477 -3.41 27.254432 27.241477 0.004
GW 516 9 -3.41 30.664432 27.241477 -3.41 37.475909 27.241477 0.004
GE 1
EK
TL 501 9 506 1 -50
TL 502 1 505 9 -50
TL 503 9 508 1 -50
TL 504 1 507 9 -50
TL 505 9 510 1 -50
TL 506 1 509 9 -50
TL 507 9 512 1 -50
TL 508 1 511 9 -50
TL 509 9 514 1 -50
TL 510 1 513 9 -50
TL 511 9 516 1 -50
TL 512 1 515 9 -50
TL 101 9 102 1 -50 12
TL 101 9 103 9 -50 12
TL 101 9 104 1 -50 12
TL 101 9 105 9 -50 12
TL 101 9 106 1 -50 12
TL 101 9 107 9 -50 12
TL 101 9 108 1 -50 12
TL 101 9 109 9 -50 12
TL 101 9 110 1 -50 12
TL 101 9 111 9 -50 12
TL 101 9 112 1 -50 12
TL 101 9 113 9 -50 12
TL 101 9 114 1 -50 12
TL 101 9 115 9 -50 12
TL 101 9 116 1 -50 12
LD 5 0 0 0 3.8E7 0
EX 0 101 9 0 2 0
GN 2 0 0 0 13 0.005
FR 0 1 0 0 22.0 0
RP 0 91 360 1001 0. 0. 1. 1.
